
Spectre (R) Circuit Simulator
Version 19.1.0.396.isr8 64bit -- 19 Jun 2020
Copyright (C) 1989-2020 Cadence Design Systems, Inc. All rights reserved worldwide. Cadence and Spectre are registered trademarks of Cadence Design Systems, Inc. All others are the property of their respective holders.

Includes RSA BSAFE(R) Cryptographic or Security Protocol Software from RSA Security, Inc.

User: VLSI_ANALOG   Host: cad19   HostID: 7F0100   PID: 17812
Memory  available: 361.7218 MB  physical: 3.9726 GB
Linux   : Red Hat Enterprise Linux Server release 6.9 (Santiago)
CPU Type: Intel(R) Core(TM) i5-2320 CPU @ 3.00GHz
All processors running at 1600.0 MHz
        Socket: Processors
        0:       0,  1,  2,  3
        
System load averages (1min, 5min, 15min) : 12.5 %, 9.2 %, 4.2 %


Simulating `./input.scs' on cad19 at 12:31:22 PM, Mon Dec 13, 2021 (process id: 17812).
Current working directory: /home/VLSI_ANALOG/UMC180/Designkits/Cadence_6.1/lowpower28/spectremdl/new/nand
Command line:
    /home/installs/SPECTRE191/tools.lnx86/bin/spectre -64 =mdl  \
        input.mdl ./input.scs

Loading /home/installs/SPECTRE191/tools.lnx86/cmi/lib/64bit/5.0/libinfineon_sh.so ...
Loading /home/installs/SPECTRE191/tools.lnx86/cmi/lib/64bit/5.0/libphilips_o_sh.so ...
Loading /home/installs/SPECTRE191/tools.lnx86/cmi/lib/64bit/5.0/libphilips_sh.so ...
Loading /home/installs/SPECTRE191/tools.lnx86/cmi/lib/64bit/5.0/libsparam_sh.so ...
Loading /home/installs/SPECTRE191/tools.lnx86/cmi/lib/64bit/5.0/libstmodels_sh.so ...
Loading /home/installs/SPECTRE191/tools.lnx86/spectre/lib/64bit/mdl/libSpectreEH_sh.so ...
Reading file:  /home/VLSI_ANALOG/UMC180/Designkits/Cadence_6.1/lowpower28/spectremdl/new/nand/input.mdl
Reading file:  /home/VLSI_ANALOG/UMC180/Designkits/Cadence_6.1/lowpower28/spectremdl/new/nand/input.scs
Reading file:  /home/installs/SPECTRE191/tools.lnx86/spectre/etc/configs/spectre.cfg
Reading file:  /home/VLSI_ANALOG/UMCLib/pdk/UMC/28/_G-01-LOGIC_MIXED_MODE28N-HPC/Designkits/Cadence_IC6/G-9FD-LOGIC_MIXED_MODE28N-HPC_UM028FDKHCC0000OA-FDK-Ver.A14_PB/UM028FDKHCC0000OA_A14_DESIGNKIT/UM028FDKHCC0000OA_A14_PB/Models/Spectre/l28hpc_mm_v1201.lib.scs
Reading file:  /home/VLSI_ANALOG/UMCLib/pdk/UMC/28/_G-01-LOGIC_MIXED_MODE28N-HPC/Designkits/Cadence_IC6/G-9FD-LOGIC_MIXED_MODE28N-HPC_UM028FDKHCC0000OA-FDK-Ver.A14_PB/UM028FDKHCC0000OA_A14_DESIGNKIT/UM028FDKHCC0000OA_A14_PB/Models/Spectre/l28hpc_rf_v017.lib.scs
Time for NDB Parsing: CPU = 4.74028 s, elapsed = 5.00695 s.
Time accumulated: CPU = 4.88926 s, elapsed = 5.00695 s.
Peak resident memory used = 207 Mbytes.


Warning from spectre during hierarchy flattening.
    WARNING (SFE-1131): Scope option `scalefactor' specified with scope `TopCircuit' at line `680' has also been specified at line `729' in file `/home/VLSI_ANALOG/UMCLib/pdk/UMC/28/_G-01-LOGIC_MIXED_MODE28N-HPC/Designkits/Cadence_IC6/G-9FD-LOGIC_MIXED_MODE28N-HPC_UM028FDKHCC0000OA-FDK-Ver.A14_PB/UM028FDKHCC0000OA_A14_DESIGNKIT/UM028FDKHCC0000OA_A14_PB/umc28hpc/../Models/Spectre/l28hpc_rf_v017.lib.scs'. As a result, the last specified value will be used for simulation.

Time for Elaboration: CPU = 62.99 ms, elapsed = 63.359 ms.
Time accumulated: CPU = 4.95225 s, elapsed = 5.0705 s.
Peak resident memory used = 220 Mbytes.


Warning from spectre during hierarchy flattening.
    WARNING (SPECTRE-17101): The value 'psf' specified for the 'checklimitdest' option will no longer be supported in future releases. Use 'spectre -h' to see other recommended values for the 'checklimitdest' option.


Time for EDB Visiting: CPU = 2 ms, elapsed = 1.07408 ms.
Time accumulated: CPU = 4.95425 s, elapsed = 5.07175 s.
Peak resident memory used = 221 Mbytes.


Global user options:
         psfversion = 1.4.0
            vabstol = 1e-06
            iabstol = 1e-12
               temp = 27
               gmin = 1e-12
             rforce = 1
           maxnotes = 5
           maxwarns = 5
             digits = 5
               cols = 80
             pivrel = 0.001
           sensfile = ../psf/sens.output
     checklimitdest = psf
               save = allpub
        scalefactor = 0.9
             reltol = 0.001
               tnom = 27
             scalem = 1
              scale = 1

Scoped user options:

Circuit inventory:
              nodes 5
              bsim4 4     
          capacitor 1     
              diode 2     
            vsource 3     

Analysis and control statement inventory:
                 dc 2     
               info 8     
               tran 1     

Output statements:
             .probe 0     
           .measure 0     
               save 0     

Time for parsing: CPU = 1.999 ms, elapsed = 77.8952 ms.
Time accumulated: CPU = 4.95625 s, elapsed = 5.14977 s.
Peak resident memory used = 223 Mbytes.

~~~~~~~~~~~~~~~~~~~~~~
Pre-Simulation Summary
~~~~~~~~~~~~~~~~~~~~~~
~~~~~~~~~~~~~~~~~~~~~~

**************************************************
Transient Analysis `trans': time = (0 s -> 200 ns)
**************************************************
DC simulation time: CPU = 1 ms, elapsed = 1.01709 ms.

Opening the PSFXL file ./input.raw/trans.tran.tran ...
Important parameter values:
    start = 0 s
    outputstart = 0 s
    stop = 200 ns
    step = 200 ps
    maxstep = 4 ns
    ic = all
    useprevic = no
    skipdc = no
    reltol = 1e-03
    abstol(V) = 1 uV
    abstol(I) = 1 pA
    temp = 27 C
    tnom = 27 C
    tempeffects = all
    errpreset = moderate
    method = traponly
    lteratio = 3.5
    relref = sigglobal
    cmin = 0 F
    gmin = 1 pS


Output and IC/nodeset summary:
                 save   3       (current)
                 save   5       (voltage)

...

Notice from spectre at time = 12.544 ns during transient analysis `trans', during task `MDLControl'.
    Found trapezoidal ringing on node V1:p.

....

Notice from spectre at time = 16.544 ns during transient analysis `trans', during task `MDLControl'.
    Found trapezoidal ringing on node V1:p.

......

Notice from spectre at time = 20.544 ns during transient analysis `trans', during task `MDLControl'.
    Found trapezoidal ringing on node V1:p.

......9

Notice from spectre at time = 22.772 ns during transient analysis `trans', during task `MDLControl'.
    Found trapezoidal ringing on node V1:p.

......9.

Notice from spectre at time = 25 ns during transient analysis `trans', during task `MDLControl'.
    Found trapezoidal ringing on node V1:p.
        Further occurrences of this notice will be suppressed.

......9......8......7......6......5......4......3......2......1......0
Number of accepted tran steps =             281

Notice from spectre during transient analysis `trans', during task `MDLControl'.
    Trapezoidal ringing is detected during tran analysis.
        Please use method=trap for better results and performance.


Maximum value achieved for any signal of each quantity: 
V: V(I22.mp1:int_d) = 350.9 mV
I: I(V0:p) = 59.45 uA
If your circuit contains signals of the same quantity that are vastly different in size (such as high voltage circuitry combined with low voltage control circuitry), you should consider specifying global option `bin_relref=yes'.

~~~~~~~~~~~~~~~~~~~~~~~~~~~~~~~~~
Post-Transient Simulation Summary
~~~~~~~~~~~~~~~~~~~~~~~~~~~~~~~~~
   -   To further speed up simulation, consider
          add ++aps on command line
~~~~~~~~~~~~~~~~~~~~~~~~~~~~~~~~~


During simulation, the CPU load for active processors is :
         0 (2.9 %)       1 (93.6 %)      2 (2.1 %)      
        Total: 99.1%
Initial condition solution time: CPU = 1 ms, elapsed = 1.11699 ms.
Intrinsic tran analysis time:    CPU = 41.993 ms, elapsed = 83.9071 ms.
Total time required for tran analysis `trans': CPU = 47.993 ms, elapsed = 89.9909 ms.
Time accumulated: CPU = 5.01024 s, elapsed = 5.24653 s.
Peak resident memory used = 226 Mbytes.


Notice from spectre during task `MDLControl'.
    12 notices suppressed.


******************************************
DC Analysis `dcs': V2:dc = (0 V -> 300 mV)
******************************************

Opening the PSF file ./input.raw/dcs.dc ...
Important parameter values:
    reltol = 1e-03
    abstol(V) = 1 uV
    abstol(I) = 1 pA
    temp = 27 C
    tnom = 27 C
    tempeffects = all
    gmindc = 1 pS
    dcs: dc = 12 mV          (4 %), step = 6 mV            (2 %)
    dcs: dc = 18 mV          (6 %), step = 6 mV            (2 %)
    dcs: dc = 24 mV          (8 %), step = 6 mV            (2 %)
    dcs: dc = 30 mV         (10 %), step = 6 mV            (2 %)
    dcs: dc = 36 mV         (12 %), step = 6 mV            (2 %)
    dcs: dc = 42 mV         (14 %), step = 6 mV            (2 %)
    dcs: dc = 48 mV         (16 %), step = 6 mV            (2 %)
    dcs: dc = 54 mV         (18 %), step = 6 mV            (2 %)
    dcs: dc = 60 mV         (20 %), step = 6 mV            (2 %)
    dcs: dc = 66 mV         (22 %), step = 6 mV            (2 %)
    dcs: dc = 72 mV         (24 %), step = 6 mV            (2 %)
    dcs: dc = 78 mV         (26 %), step = 6 mV            (2 %)
    dcs: dc = 84 mV         (28 %), step = 6 mV            (2 %)
    dcs: dc = 90 mV         (30 %), step = 6 mV            (2 %)
    dcs: dc = 96 mV         (32 %), step = 6 mV            (2 %)
    dcs: dc = 102 mV        (34 %), step = 6 mV            (2 %)
    dcs: dc = 108 mV        (36 %), step = 6 mV            (2 %)
    dcs: dc = 114 mV        (38 %), step = 6 mV            (2 %)
    dcs: dc = 120 mV        (40 %), step = 6 mV            (2 %)
    dcs: dc = 126 mV        (42 %), step = 6 mV            (2 %)
    dcs: dc = 132 mV        (44 %), step = 6 mV            (2 %)
    dcs: dc = 138 mV        (46 %), step = 6 mV            (2 %)
    dcs: dc = 144 mV        (48 %), step = 6 mV            (2 %)
    dcs: dc = 150 mV        (50 %), step = 6 mV            (2 %)
    dcs: dc = 156 mV        (52 %), step = 6 mV            (2 %)
    dcs: dc = 162 mV        (54 %), step = 6 mV            (2 %)
    dcs: dc = 168 mV        (56 %), step = 6 mV            (2 %)
    dcs: dc = 174 mV        (58 %), step = 6 mV            (2 %)
    dcs: dc = 180 mV        (60 %), step = 6 mV            (2 %)
    dcs: dc = 186 mV        (62 %), step = 6 mV            (2 %)
    dcs: dc = 192 mV        (64 %), step = 6 mV            (2 %)
    dcs: dc = 198 mV        (66 %), step = 6 mV            (2 %)
    dcs: dc = 204 mV        (68 %), step = 6 mV            (2 %)
    dcs: dc = 210 mV        (70 %), step = 6 mV            (2 %)
    dcs: dc = 216 mV        (72 %), step = 6 mV            (2 %)
    dcs: dc = 222 mV        (74 %), step = 6 mV            (2 %)
    dcs: dc = 228 mV        (76 %), step = 6 mV            (2 %)
    dcs: dc = 234 mV        (78 %), step = 6 mV            (2 %)
    dcs: dc = 240 mV        (80 %), step = 6 mV            (2 %)
    dcs: dc = 246 mV        (82 %), step = 6 mV            (2 %)
    dcs: dc = 252 mV        (84 %), step = 6 mV            (2 %)
    dcs: dc = 258 mV        (86 %), step = 6 mV            (2 %)
    dcs: dc = 264 mV        (88 %), step = 6 mV            (2 %)
    dcs: dc = 270 mV        (90 %), step = 6 mV            (2 %)
    dcs: dc = 276 mV        (92 %), step = 6 mV            (2 %)
    dcs: dc = 282 mV        (94 %), step = 6 mV            (2 %)
    dcs: dc = 288 mV        (96 %), step = 6 mV            (2 %)
    dcs: dc = 294 mV        (98 %), step = 6 mV            (2 %)
    dcs: dc = 300 mV       (100 %), step = 6 mV            (2 %)

Maximum value achieved for any signal of each quantity: 
V: V(net06) = 300 mV
I: I(V0:p) = 170.3 nA
DC simulation time: CPU = 14.997 ms, elapsed = 61.4369 ms.

Notice from spectre at dc = 300 mV during DC analysis `dcs', during task `MDLControl'.
    The value of parameter 'dc' has been reset to the original value 0.

Total time required for dc analysis `dcs': CPU = 14.997 ms, elapsed = 61.487 ms.
Time accumulated: CPU = 5.02723 s, elapsed = 5.35454 s.
Peak resident memory used = 227 Mbytes.


Warning from spectre.
    WARNING (SPECTRE-17101): The value 'psf' specified for the 'checklimitdest' option will no longer be supported in future releases. Use 'spectre -h' to see other recommended values for the 'checklimitdest' option.
    WARNING (SPECTRE-17101): The value 'psf' specified for the 'checklimitdest' option will no longer be supported in future releases. Use 'spectre -h' to see other recommended values for the 'checklimitdest' option.
    WARNING (SPECTRE-17101): The value 'psf' specified for the 'checklimitdest' option will no longer be supported in future releases. Use 'spectre -h' to see other recommended values for the 'checklimitdest' option.


Opening the PSF file ./input.raw/trans.optimize ...

************************************************************
Transient Analysis `trans-000_trans': time = (0 s -> 200 ns)
************************************************************
DC simulation time: CPU = 0 s, elapsed = 696.898 us.

Opening the PSFXL file ./input.raw/trans-000_trans.tran.tran ...
Important parameter values:
    start = 0 s
    outputstart = 0 s
    stop = 200 ns
    step = 200 ps
    maxstep = 4 ns
    ic = all
    useprevic = no
    skipdc = no
    reltol = 1e-03
    abstol(V) = 1 uV
    abstol(I) = 1 pA
    temp = 27 C
    tnom = 27 C
    tempeffects = all
    errpreset = moderate
    method = traponly
    lteratio = 3.5
    relref = sigglobal
    cmin = 0 F
    gmin = 1 pS


Output and IC/nodeset summary:
                 save   3       (current)
                 save   5       (voltage)

...

Notice from spectre at time = 12.4501 ns during transient analysis `trans-000_trans', during task `MDLControl'.
    Found trapezoidal ringing on node V1:p.

....

Notice from spectre at time = 16.4501 ns during transient analysis `trans-000_trans', during task `MDLControl'.
    Found trapezoidal ringing on node V1:p.

......

Notice from spectre at time = 20.4501 ns during transient analysis `trans-000_trans', during task `MDLControl'.
    Found trapezoidal ringing on node V1:p.

......9

Notice from spectre at time = 22.725 ns during transient analysis `trans-000_trans', during task `MDLControl'.
    Found trapezoidal ringing on node V1:p.

......9.

Notice from spectre at time = 25 ns during transient analysis `trans-000_trans', during task `MDLControl'.
    Found trapezoidal ringing on node V1:p.
        Further occurrences of this notice will be suppressed.

......9......8......7......6......5......4......3......2......1......0
Number of accepted tran steps =             267

Notice from spectre during transient analysis `trans-000_trans', during task `MDLControl'.
    Trapezoidal ringing is detected during tran analysis.
        Please use method=trap for better results and performance.


Maximum value achieved for any signal of each quantity: 
V: V(I22.mp1:int_d) = 357 mV
I: I(V0:p) = 73.23 uA
If your circuit contains signals of the same quantity that are vastly different in size (such as high voltage circuitry combined with low voltage control circuitry), you should consider specifying global option `bin_relref=yes'.

~~~~~~~~~~~~~~~~~~~~~~~~~~~~~~~~~
Post-Transient Simulation Summary
~~~~~~~~~~~~~~~~~~~~~~~~~~~~~~~~~
   -   To further speed up simulation, consider
          add ++aps on command line
~~~~~~~~~~~~~~~~~~~~~~~~~~~~~~~~~


During simulation, the CPU load for active processors is :
         0 (5.3 %)       1 (87.7 %)      2 (2.2 %)      
        Total: 95.6%
Initial condition solution time: CPU = 0 s, elapsed = 787.02 us.
Intrinsic tran analysis time:    CPU = 40.993 ms, elapsed = 69.1171 ms.
Total time required for tran analysis `trans-000_trans': CPU = 45.993 ms, elapsed = 73.766 ms.
Time accumulated: CPU = 5.13222 s, elapsed = 5.61011 s.
Peak resident memory used = 227 Mbytes.


Notice from spectre during task `MDLControl'.
    17 notices suppressed.


Opening the PSF file ./input.raw/dcs.optimize ...

**************************************************
DC Analysis `dcs-000_dcs': V2:dc = (0 V -> 300 mV)
**************************************************

Opening the PSF file ./input.raw/dcs-000_dcs.dc ...
Important parameter values:
    reltol = 1e-03
    abstol(V) = 1 uV
    abstol(I) = 1 pA
    temp = 27 C
    tnom = 27 C
    tempeffects = all
    gmindc = 1 pS
    dcs-000_dcs: dc = 12 mV          (4 %), step = 6 mV            (2 %)
    dcs-000_dcs: dc = 18 mV          (6 %), step = 6 mV            (2 %)
    dcs-000_dcs: dc = 24 mV          (8 %), step = 6 mV            (2 %)
    dcs-000_dcs: dc = 30 mV         (10 %), step = 6 mV            (2 %)
    dcs-000_dcs: dc = 36 mV         (12 %), step = 6 mV            (2 %)
    dcs-000_dcs: dc = 42 mV         (14 %), step = 6 mV            (2 %)
    dcs-000_dcs: dc = 48 mV         (16 %), step = 6 mV            (2 %)
    dcs-000_dcs: dc = 54 mV         (18 %), step = 6 mV            (2 %)
    dcs-000_dcs: dc = 60 mV         (20 %), step = 6 mV            (2 %)
    dcs-000_dcs: dc = 66 mV         (22 %), step = 6 mV            (2 %)
    dcs-000_dcs: dc = 72 mV         (24 %), step = 6 mV            (2 %)
    dcs-000_dcs: dc = 78 mV         (26 %), step = 6 mV            (2 %)
    dcs-000_dcs: dc = 84 mV         (28 %), step = 6 mV            (2 %)
    dcs-000_dcs: dc = 90 mV         (30 %), step = 6 mV            (2 %)
    dcs-000_dcs: dc = 96 mV         (32 %), step = 6 mV            (2 %)
    dcs-000_dcs: dc = 102 mV        (34 %), step = 6 mV            (2 %)
    dcs-000_dcs: dc = 108 mV        (36 %), step = 6 mV            (2 %)
    dcs-000_dcs: dc = 114 mV        (38 %), step = 6 mV            (2 %)
    dcs-000_dcs: dc = 120 mV        (40 %), step = 6 mV            (2 %)
    dcs-000_dcs: dc = 126 mV        (42 %), step = 6 mV            (2 %)
    dcs-000_dcs: dc = 132 mV        (44 %), step = 6 mV            (2 %)
    dcs-000_dcs: dc = 138 mV        (46 %), step = 6 mV            (2 %)
    dcs-000_dcs: dc = 144 mV        (48 %), step = 6 mV            (2 %)
    dcs-000_dcs: dc = 150 mV        (50 %), step = 6 mV            (2 %)
    dcs-000_dcs: dc = 156 mV        (52 %), step = 6 mV            (2 %)
    dcs-000_dcs: dc = 162 mV        (54 %), step = 6 mV            (2 %)
    dcs-000_dcs: dc = 168 mV        (56 %), step = 6 mV            (2 %)
    dcs-000_dcs: dc = 174 mV        (58 %), step = 6 mV            (2 %)
    dcs-000_dcs: dc = 180 mV        (60 %), step = 6 mV            (2 %)
    dcs-000_dcs: dc = 186 mV        (62 %), step = 6 mV            (2 %)
    dcs-000_dcs: dc = 192 mV        (64 %), step = 6 mV            (2 %)
    dcs-000_dcs: dc = 198 mV        (66 %), step = 6 mV            (2 %)
    dcs-000_dcs: dc = 204 mV        (68 %), step = 6 mV            (2 %)
    dcs-000_dcs: dc = 210 mV        (70 %), step = 6 mV            (2 %)
    dcs-000_dcs: dc = 216 mV        (72 %), step = 6 mV            (2 %)
    dcs-000_dcs: dc = 222 mV        (74 %), step = 6 mV            (2 %)
    dcs-000_dcs: dc = 228 mV        (76 %), step = 6 mV            (2 %)
    dcs-000_dcs: dc = 234 mV        (78 %), step = 6 mV            (2 %)
    dcs-000_dcs: dc = 240 mV        (80 %), step = 6 mV            (2 %)
    dcs-000_dcs: dc = 246 mV        (82 %), step = 6 mV            (2 %)
    dcs-000_dcs: dc = 252 mV        (84 %), step = 6 mV            (2 %)
    dcs-000_dcs: dc = 258 mV        (86 %), step = 6 mV            (2 %)
    dcs-000_dcs: dc = 264 mV        (88 %), step = 6 mV            (2 %)
    dcs-000_dcs: dc = 270 mV        (90 %), step = 6 mV            (2 %)
    dcs-000_dcs: dc = 276 mV        (92 %), step = 6 mV            (2 %)
    dcs-000_dcs: dc = 282 mV        (94 %), step = 6 mV            (2 %)
    dcs-000_dcs: dc = 288 mV        (96 %), step = 6 mV            (2 %)
    dcs-000_dcs: dc = 294 mV        (98 %), step = 6 mV            (2 %)
    dcs-000_dcs: dc = 300 mV       (100 %), step = 6 mV            (2 %)

Maximum value achieved for any signal of each quantity: 
V: V(net06) = 300 mV
I: I(V0:p) = 217.4 nA
DC simulation time: CPU = 16.997 ms, elapsed = 47.2832 ms.

Notice from spectre at dc = 300 mV during DC analysis `dcs-000_dcs', during task `MDLControl'.
    The value of parameter 'dc' has been reset to the original value 0.

Total time required for dc analysis `dcs-000_dcs': CPU = 16.997 ms, elapsed = 47.3311 ms.
Time accumulated: CPU = 5.15522 s, elapsed = 5.74226 s.
Peak resident memory used = 227 Mbytes.


Warning from spectre.
    WARNING (SPECTRE-17101): The value 'psf' specified for the 'checklimitdest' option will no longer be supported in future releases. Use 'spectre -h' to see other recommended values for the 'checklimitdest' option.


************************************************************
Transient Analysis `trans-000_trans': time = (0 s -> 200 ns)
************************************************************
DC simulation time: CPU = 0 s, elapsed = 500.917 us.

Opening the PSFXL file ./input.raw/trans-000_trans.tran.tran ...
Important parameter values:
    start = 0 s
    outputstart = 0 s
    stop = 200 ns
    step = 200 ps
    maxstep = 4 ns
    ic = all
    useprevic = no
    skipdc = no
    reltol = 1e-03
    abstol(V) = 1 uV
    abstol(I) = 1 pA
    temp = 27 C
    tnom = 27 C
    tempeffects = all
    errpreset = moderate
    method = traponly
    lteratio = 3.5
    relref = sigglobal
    cmin = 0 F
    gmin = 1 pS


Output and IC/nodeset summary:
                 save   3       (current)
                 save   5       (voltage)

...

Notice from spectre at time = 12.4496 ns during transient analysis `trans-000_trans', during task `MDLControl'.
    Found trapezoidal ringing on node V1:p.

....

Notice from spectre at time = 16.4496 ns during transient analysis `trans-000_trans', during task `MDLControl'.
    Found trapezoidal ringing on node V1:p.

......

Notice from spectre at time = 20.4496 ns during transient analysis `trans-000_trans', during task `MDLControl'.
    Found trapezoidal ringing on node V1:p.

......9

Notice from spectre at time = 22.7248 ns during transient analysis `trans-000_trans', during task `MDLControl'.
    Found trapezoidal ringing on node V1:p.

......9.

Notice from spectre at time = 25 ns during transient analysis `trans-000_trans', during task `MDLControl'.
    Found trapezoidal ringing on node V1:p.
        Further occurrences of this notice will be suppressed.

......9......8......7......6......5......4......3......2......1......0
Number of accepted tran steps =             267

Notice from spectre during transient analysis `trans-000_trans', during task `MDLControl'.
    Trapezoidal ringing is detected during tran analysis.
        Please use method=trap for better results and performance.


Maximum value achieved for any signal of each quantity: 
V: V(I22.mp1:int_d) = 357 mV
I: I(V0:p) = 73.23 uA
If your circuit contains signals of the same quantity that are vastly different in size (such as high voltage circuitry combined with low voltage control circuitry), you should consider specifying global option `bin_relref=yes'.

~~~~~~~~~~~~~~~~~~~~~~~~~~~~~~~~~
Post-Transient Simulation Summary
~~~~~~~~~~~~~~~~~~~~~~~~~~~~~~~~~
   -   To further speed up simulation, consider
          add ++aps on command line
~~~~~~~~~~~~~~~~~~~~~~~~~~~~~~~~~


During simulation, the CPU load for active processors is :
         0 (6.8 %)       1 (84.3 %)      2 (2.3 %)      
        Total: 93.7%
Initial condition solution time: CPU = 0 s, elapsed = 545.025 us.
Intrinsic tran analysis time:    CPU = 42.992 ms, elapsed = 83.2222 ms.
Total time required for tran analysis `trans-000_trans': CPU = 44.992 ms, elapsed = 86.2699 ms.
Time accumulated: CPU = 5.2202 s, elapsed = 5.84747 s.
Peak resident memory used = 227 Mbytes.


Notice from spectre during task `MDLControl'.
    17 notices suppressed.


**************************************************
DC Analysis `dcs-000_dcs': V2:dc = (0 V -> 300 mV)
**************************************************

Opening the PSF file ./input.raw/dcs-000_dcs.dc ...
Important parameter values:
    reltol = 1e-03
    abstol(V) = 1 uV
    abstol(I) = 1 pA
    temp = 27 C
    tnom = 27 C
    tempeffects = all
    gmindc = 1 pS
    dcs-000_dcs: dc = 12 mV          (4 %), step = 6 mV            (2 %)
    dcs-000_dcs: dc = 18 mV          (6 %), step = 6 mV            (2 %)
    dcs-000_dcs: dc = 24 mV          (8 %), step = 6 mV            (2 %)
    dcs-000_dcs: dc = 30 mV         (10 %), step = 6 mV            (2 %)
    dcs-000_dcs: dc = 36 mV         (12 %), step = 6 mV            (2 %)
    dcs-000_dcs: dc = 42 mV         (14 %), step = 6 mV            (2 %)
    dcs-000_dcs: dc = 48 mV         (16 %), step = 6 mV            (2 %)
    dcs-000_dcs: dc = 54 mV         (18 %), step = 6 mV            (2 %)
    dcs-000_dcs: dc = 60 mV         (20 %), step = 6 mV            (2 %)
    dcs-000_dcs: dc = 66 mV         (22 %), step = 6 mV            (2 %)
    dcs-000_dcs: dc = 72 mV         (24 %), step = 6 mV            (2 %)
    dcs-000_dcs: dc = 78 mV         (26 %), step = 6 mV            (2 %)
    dcs-000_dcs: dc = 84 mV         (28 %), step = 6 mV            (2 %)
    dcs-000_dcs: dc = 90 mV         (30 %), step = 6 mV            (2 %)
    dcs-000_dcs: dc = 96 mV         (32 %), step = 6 mV            (2 %)
    dcs-000_dcs: dc = 102 mV        (34 %), step = 6 mV            (2 %)
    dcs-000_dcs: dc = 108 mV        (36 %), step = 6 mV            (2 %)
    dcs-000_dcs: dc = 114 mV        (38 %), step = 6 mV            (2 %)
    dcs-000_dcs: dc = 120 mV        (40 %), step = 6 mV            (2 %)
    dcs-000_dcs: dc = 126 mV        (42 %), step = 6 mV            (2 %)
    dcs-000_dcs: dc = 132 mV        (44 %), step = 6 mV            (2 %)
    dcs-000_dcs: dc = 138 mV        (46 %), step = 6 mV            (2 %)
    dcs-000_dcs: dc = 144 mV        (48 %), step = 6 mV            (2 %)
    dcs-000_dcs: dc = 150 mV        (50 %), step = 6 mV            (2 %)
    dcs-000_dcs: dc = 156 mV        (52 %), step = 6 mV            (2 %)
    dcs-000_dcs: dc = 162 mV        (54 %), step = 6 mV            (2 %)
    dcs-000_dcs: dc = 168 mV        (56 %), step = 6 mV            (2 %)
    dcs-000_dcs: dc = 174 mV        (58 %), step = 6 mV            (2 %)
    dcs-000_dcs: dc = 180 mV        (60 %), step = 6 mV            (2 %)
    dcs-000_dcs: dc = 186 mV        (62 %), step = 6 mV            (2 %)
    dcs-000_dcs: dc = 192 mV        (64 %), step = 6 mV            (2 %)
    dcs-000_dcs: dc = 198 mV        (66 %), step = 6 mV            (2 %)
    dcs-000_dcs: dc = 204 mV        (68 %), step = 6 mV            (2 %)
    dcs-000_dcs: dc = 210 mV        (70 %), step = 6 mV            (2 %)
    dcs-000_dcs: dc = 216 mV        (72 %), step = 6 mV            (2 %)
    dcs-000_dcs: dc = 222 mV        (74 %), step = 6 mV            (2 %)
    dcs-000_dcs: dc = 228 mV        (76 %), step = 6 mV            (2 %)
    dcs-000_dcs: dc = 234 mV        (78 %), step = 6 mV            (2 %)
    dcs-000_dcs: dc = 240 mV        (80 %), step = 6 mV            (2 %)
    dcs-000_dcs: dc = 246 mV        (82 %), step = 6 mV            (2 %)
    dcs-000_dcs: dc = 252 mV        (84 %), step = 6 mV            (2 %)
    dcs-000_dcs: dc = 258 mV        (86 %), step = 6 mV            (2 %)
    dcs-000_dcs: dc = 264 mV        (88 %), step = 6 mV            (2 %)
    dcs-000_dcs: dc = 270 mV        (90 %), step = 6 mV            (2 %)
    dcs-000_dcs: dc = 276 mV        (92 %), step = 6 mV            (2 %)
    dcs-000_dcs: dc = 282 mV        (94 %), step = 6 mV            (2 %)
    dcs-000_dcs: dc = 288 mV        (96 %), step = 6 mV            (2 %)
    dcs-000_dcs: dc = 294 mV        (98 %), step = 6 mV            (2 %)
    dcs-000_dcs: dc = 300 mV       (100 %), step = 6 mV            (2 %)

Maximum value achieved for any signal of each quantity: 
V: V(net06) = 300 mV
I: I(V0:p) = 217.4 nA
DC simulation time: CPU = 15.998 ms, elapsed = 53.7829 ms.

Notice from spectre at dc = 300 mV during DC analysis `dcs-000_dcs', during task `MDLControl'.
    The value of parameter 'dc' has been reset to the original value 0.

Total time required for dc analysis `dcs-000_dcs': CPU = 15.998 ms, elapsed = 53.8242 ms.
Time accumulated: CPU = 5.2382 s, elapsed = 5.90188 s.
Peak resident memory used = 227 Mbytes.


Warning from spectre.
    WARNING (SPECTRE-17101): The value 'psf' specified for the 'checklimitdest' option will no longer be supported in future releases. Use 'spectre -h' to see other recommended values for the 'checklimitdest' option.
    WARNING (SPECTRE-17101): The value 'psf' specified for the 'checklimitdest' option will no longer be supported in future releases. Use 'spectre -h' to see other recommended values for the 'checklimitdest' option.


************************************************************
Transient Analysis `trans-000_trans': time = (0 s -> 200 ns)
************************************************************
DC simulation time: CPU = 1 ms, elapsed = 389.099 us.

Opening the PSFXL file ./input.raw/trans-000_trans.tran.tran ...
Important parameter values:
    start = 0 s
    outputstart = 0 s
    stop = 200 ns
    step = 200 ps
    maxstep = 4 ns
    ic = all
    useprevic = no
    skipdc = no
    reltol = 1e-03
    abstol(V) = 1 uV
    abstol(I) = 1 pA
    temp = 27 C
    tnom = 27 C
    tempeffects = all
    errpreset = moderate
    method = traponly
    lteratio = 3.5
    relref = sigglobal
    cmin = 0 F
    gmin = 1 pS


Output and IC/nodeset summary:
                 save   3       (current)
                 save   5       (voltage)

...

Notice from spectre at time = 12.4511 ns during transient analysis `trans-000_trans', during task `MDLControl'.
    Found trapezoidal ringing on node V1:p.

....

Notice from spectre at time = 16.4511 ns during transient analysis `trans-000_trans', during task `MDLControl'.
    Found trapezoidal ringing on node V1:p.

......

Notice from spectre at time = 20.4511 ns during transient analysis `trans-000_trans', during task `MDLControl'.
    Found trapezoidal ringing on node V1:p.

......9

Notice from spectre at time = 22.7256 ns during transient analysis `trans-000_trans', during task `MDLControl'.
    Found trapezoidal ringing on node V1:p.

......9.

Notice from spectre at time = 25 ns during transient analysis `trans-000_trans', during task `MDLControl'.
    Found trapezoidal ringing on node V1:p.
        Further occurrences of this notice will be suppressed.

......9......8......7......6......5......4......3......2......1......0
Number of accepted tran steps =             267

Notice from spectre during transient analysis `trans-000_trans', during task `MDLControl'.
    Trapezoidal ringing is detected during tran analysis.
        Please use method=trap for better results and performance.


Maximum value achieved for any signal of each quantity: 
V: V(I22.mp1:int_d) = 357 mV
I: I(V0:p) = 73.23 uA
If your circuit contains signals of the same quantity that are vastly different in size (such as high voltage circuitry combined with low voltage control circuitry), you should consider specifying global option `bin_relref=yes'.

~~~~~~~~~~~~~~~~~~~~~~~~~~~~~~~~~
Post-Transient Simulation Summary
~~~~~~~~~~~~~~~~~~~~~~~~~~~~~~~~~
   -   To further speed up simulation, consider
          add ++aps on command line
~~~~~~~~~~~~~~~~~~~~~~~~~~~~~~~~~


During simulation, the CPU load for active processors is :
         0 (8.1 %)       1 (82.2 %)      2 (2.4 %)      
        Total: 93.1%
Initial condition solution time: CPU = 1 ms, elapsed = 432.968 us.
Intrinsic tran analysis time:    CPU = 41.993 ms, elapsed = 78.9239 ms.
Total time required for tran analysis `trans-000_trans': CPU = 43.992 ms, elapsed = 81.5101 ms.
Time accumulated: CPU = 5.31719 s, elapsed = 6.02074 s.
Peak resident memory used = 227 Mbytes.


Notice from spectre during task `MDLControl'.
    17 notices suppressed.


**************************************************
DC Analysis `dcs-000_dcs': V2:dc = (0 V -> 300 mV)
**************************************************

Opening the PSF file ./input.raw/dcs-000_dcs.dc ...
Important parameter values:
    reltol = 1e-03
    abstol(V) = 1 uV
    abstol(I) = 1 pA
    temp = 27 C
    tnom = 27 C
    tempeffects = all
    gmindc = 1 pS
    dcs-000_dcs: dc = 12 mV          (4 %), step = 6 mV            (2 %)
    dcs-000_dcs: dc = 18 mV          (6 %), step = 6 mV            (2 %)
    dcs-000_dcs: dc = 24 mV          (8 %), step = 6 mV            (2 %)
    dcs-000_dcs: dc = 30 mV         (10 %), step = 6 mV            (2 %)
    dcs-000_dcs: dc = 36 mV         (12 %), step = 6 mV            (2 %)
    dcs-000_dcs: dc = 42 mV         (14 %), step = 6 mV            (2 %)
    dcs-000_dcs: dc = 48 mV         (16 %), step = 6 mV            (2 %)
    dcs-000_dcs: dc = 54 mV         (18 %), step = 6 mV            (2 %)
    dcs-000_dcs: dc = 60 mV         (20 %), step = 6 mV            (2 %)
    dcs-000_dcs: dc = 66 mV         (22 %), step = 6 mV            (2 %)
    dcs-000_dcs: dc = 72 mV         (24 %), step = 6 mV            (2 %)
    dcs-000_dcs: dc = 78 mV         (26 %), step = 6 mV            (2 %)
    dcs-000_dcs: dc = 84 mV         (28 %), step = 6 mV            (2 %)
    dcs-000_dcs: dc = 90 mV         (30 %), step = 6 mV            (2 %)
    dcs-000_dcs: dc = 96 mV         (32 %), step = 6 mV            (2 %)
    dcs-000_dcs: dc = 102 mV        (34 %), step = 6 mV            (2 %)
    dcs-000_dcs: dc = 108 mV        (36 %), step = 6 mV            (2 %)
    dcs-000_dcs: dc = 114 mV        (38 %), step = 6 mV            (2 %)
    dcs-000_dcs: dc = 120 mV        (40 %), step = 6 mV            (2 %)
    dcs-000_dcs: dc = 126 mV        (42 %), step = 6 mV            (2 %)
    dcs-000_dcs: dc = 132 mV        (44 %), step = 6 mV            (2 %)
    dcs-000_dcs: dc = 138 mV        (46 %), step = 6 mV            (2 %)
    dcs-000_dcs: dc = 144 mV        (48 %), step = 6 mV            (2 %)
    dcs-000_dcs: dc = 150 mV        (50 %), step = 6 mV            (2 %)
    dcs-000_dcs: dc = 156 mV        (52 %), step = 6 mV            (2 %)
    dcs-000_dcs: dc = 162 mV        (54 %), step = 6 mV            (2 %)
    dcs-000_dcs: dc = 168 mV        (56 %), step = 6 mV            (2 %)
    dcs-000_dcs: dc = 174 mV        (58 %), step = 6 mV            (2 %)
    dcs-000_dcs: dc = 180 mV        (60 %), step = 6 mV            (2 %)
    dcs-000_dcs: dc = 186 mV        (62 %), step = 6 mV            (2 %)
    dcs-000_dcs: dc = 192 mV        (64 %), step = 6 mV            (2 %)
    dcs-000_dcs: dc = 198 mV        (66 %), step = 6 mV            (2 %)
    dcs-000_dcs: dc = 204 mV        (68 %), step = 6 mV            (2 %)
    dcs-000_dcs: dc = 210 mV        (70 %), step = 6 mV            (2 %)
    dcs-000_dcs: dc = 216 mV        (72 %), step = 6 mV            (2 %)
    dcs-000_dcs: dc = 222 mV        (74 %), step = 6 mV            (2 %)
    dcs-000_dcs: dc = 228 mV        (76 %), step = 6 mV            (2 %)
    dcs-000_dcs: dc = 234 mV        (78 %), step = 6 mV            (2 %)
    dcs-000_dcs: dc = 240 mV        (80 %), step = 6 mV            (2 %)
    dcs-000_dcs: dc = 246 mV        (82 %), step = 6 mV            (2 %)
    dcs-000_dcs: dc = 252 mV        (84 %), step = 6 mV            (2 %)
    dcs-000_dcs: dc = 258 mV        (86 %), step = 6 mV            (2 %)
    dcs-000_dcs: dc = 264 mV        (88 %), step = 6 mV            (2 %)
    dcs-000_dcs: dc = 270 mV        (90 %), step = 6 mV            (2 %)
    dcs-000_dcs: dc = 276 mV        (92 %), step = 6 mV            (2 %)
    dcs-000_dcs: dc = 282 mV        (94 %), step = 6 mV            (2 %)
    dcs-000_dcs: dc = 288 mV        (96 %), step = 6 mV            (2 %)
    dcs-000_dcs: dc = 294 mV        (98 %), step = 6 mV            (2 %)
    dcs-000_dcs: dc = 300 mV       (100 %), step = 6 mV            (2 %)

Maximum value achieved for any signal of each quantity: 
V: V(net06) = 300 mV
I: I(V0:p) = 217.4 nA
DC simulation time: CPU = 11.999 ms, elapsed = 44.1439 ms.

Notice from spectre at dc = 300 mV during DC analysis `dcs-000_dcs', during task `MDLControl'.
    The value of parameter 'dc' has been reset to the original value 0.

Total time required for dc analysis `dcs-000_dcs': CPU = 11.999 ms, elapsed = 44.184 ms.
Time accumulated: CPU = 5.32919 s, elapsed = 6.06554 s.
Peak resident memory used = 227 Mbytes.


Warning from spectre.
    WARNING (SPECTRE-17101): The value 'psf' specified for the 'checklimitdest' option will no longer be supported in future releases. Use 'spectre -h' to see other recommended values for the 'checklimitdest' option.
    WARNING (SPECTRE-17101): The value 'psf' specified for the 'checklimitdest' option will no longer be supported in future releases. Use 'spectre -h' to see other recommended values for the 'checklimitdest' option.


************************************************************
Transient Analysis `trans-000_trans': time = (0 s -> 200 ns)
************************************************************
DC simulation time: CPU = 0 s, elapsed = 370.979 us.

Opening the PSFXL file ./input.raw/trans-000_trans.tran.tran ...
Important parameter values:
    start = 0 s
    outputstart = 0 s
    stop = 200 ns
    step = 200 ps
    maxstep = 4 ns
    ic = all
    useprevic = no
    skipdc = no
    reltol = 1e-03
    abstol(V) = 1 uV
    abstol(I) = 1 pA
    temp = 27 C
    tnom = 27 C
    tempeffects = all
    errpreset = moderate
    method = traponly
    lteratio = 3.5
    relref = sigglobal
    cmin = 0 F
    gmin = 1 pS


Output and IC/nodeset summary:
                 save   3       (current)
                 save   5       (voltage)

...

Notice from spectre at time = 12.4508 ns during transient analysis `trans-000_trans', during task `MDLControl'.
    Found trapezoidal ringing on node V1:p.

....

Notice from spectre at time = 16.4508 ns during transient analysis `trans-000_trans', during task `MDLControl'.
    Found trapezoidal ringing on node V1:p.

......

Notice from spectre at time = 20.4508 ns during transient analysis `trans-000_trans', during task `MDLControl'.
    Found trapezoidal ringing on node V1:p.

......9

Notice from spectre at time = 22.7254 ns during transient analysis `trans-000_trans', during task `MDLControl'.
    Found trapezoidal ringing on node V1:p.

......9.

Notice from spectre at time = 25 ns during transient analysis `trans-000_trans', during task `MDLControl'.
    Found trapezoidal ringing on node V1:p.
        Further occurrences of this notice will be suppressed.

......9......8......7......6......5......4......3......2......1......0
Number of accepted tran steps =             267

Notice from spectre during transient analysis `trans-000_trans', during task `MDLControl'.
    Trapezoidal ringing is detected during tran analysis.
        Please use method=trap for better results and performance.


Maximum value achieved for any signal of each quantity: 
V: V(I22.mp1:int_d) = 357 mV
I: I(V0:p) = 73.23 uA
If your circuit contains signals of the same quantity that are vastly different in size (such as high voltage circuitry combined with low voltage control circuitry), you should consider specifying global option `bin_relref=yes'.

~~~~~~~~~~~~~~~~~~~~~~~~~~~~~~~~~
Post-Transient Simulation Summary
~~~~~~~~~~~~~~~~~~~~~~~~~~~~~~~~~
   -   To further speed up simulation, consider
          add ++aps on command line
~~~~~~~~~~~~~~~~~~~~~~~~~~~~~~~~~


During simulation, the CPU load for active processors is :
         0 (9.6 %)       1 (80.5 %)      2 (2.6 %)      
        Total: 93.1%
Initial condition solution time: CPU = 0 s, elapsed = 421.047 us.
Intrinsic tran analysis time:    CPU = 40.994 ms, elapsed = 75.0029 ms.
Total time required for tran analysis `trans-000_trans': CPU = 42.993 ms, elapsed = 77.493 ms.
Time accumulated: CPU = 5.40918 s, elapsed = 6.18002 s.
Peak resident memory used = 227 Mbytes.


Notice from spectre during task `MDLControl'.
    17 notices suppressed.


**************************************************
DC Analysis `dcs-000_dcs': V2:dc = (0 V -> 300 mV)
**************************************************

Opening the PSF file ./input.raw/dcs-000_dcs.dc ...
Important parameter values:
    reltol = 1e-03
    abstol(V) = 1 uV
    abstol(I) = 1 pA
    temp = 27 C
    tnom = 27 C
    tempeffects = all
    gmindc = 1 pS
    dcs-000_dcs: dc = 12 mV          (4 %), step = 6 mV            (2 %)
    dcs-000_dcs: dc = 18 mV          (6 %), step = 6 mV            (2 %)
    dcs-000_dcs: dc = 24 mV          (8 %), step = 6 mV            (2 %)
    dcs-000_dcs: dc = 30 mV         (10 %), step = 6 mV            (2 %)
    dcs-000_dcs: dc = 36 mV         (12 %), step = 6 mV            (2 %)
    dcs-000_dcs: dc = 42 mV         (14 %), step = 6 mV            (2 %)
    dcs-000_dcs: dc = 48 mV         (16 %), step = 6 mV            (2 %)
    dcs-000_dcs: dc = 54 mV         (18 %), step = 6 mV            (2 %)
    dcs-000_dcs: dc = 60 mV         (20 %), step = 6 mV            (2 %)
    dcs-000_dcs: dc = 66 mV         (22 %), step = 6 mV            (2 %)
    dcs-000_dcs: dc = 72 mV         (24 %), step = 6 mV            (2 %)
    dcs-000_dcs: dc = 78 mV         (26 %), step = 6 mV            (2 %)
    dcs-000_dcs: dc = 84 mV         (28 %), step = 6 mV            (2 %)
    dcs-000_dcs: dc = 90 mV         (30 %), step = 6 mV            (2 %)
    dcs-000_dcs: dc = 96 mV         (32 %), step = 6 mV            (2 %)
    dcs-000_dcs: dc = 102 mV        (34 %), step = 6 mV            (2 %)
    dcs-000_dcs: dc = 108 mV        (36 %), step = 6 mV            (2 %)
    dcs-000_dcs: dc = 114 mV        (38 %), step = 6 mV            (2 %)
    dcs-000_dcs: dc = 120 mV        (40 %), step = 6 mV            (2 %)
    dcs-000_dcs: dc = 126 mV        (42 %), step = 6 mV            (2 %)
    dcs-000_dcs: dc = 132 mV        (44 %), step = 6 mV            (2 %)
    dcs-000_dcs: dc = 138 mV        (46 %), step = 6 mV            (2 %)
    dcs-000_dcs: dc = 144 mV        (48 %), step = 6 mV            (2 %)
    dcs-000_dcs: dc = 150 mV        (50 %), step = 6 mV            (2 %)
    dcs-000_dcs: dc = 156 mV        (52 %), step = 6 mV            (2 %)
    dcs-000_dcs: dc = 162 mV        (54 %), step = 6 mV            (2 %)
    dcs-000_dcs: dc = 168 mV        (56 %), step = 6 mV            (2 %)
    dcs-000_dcs: dc = 174 mV        (58 %), step = 6 mV            (2 %)
    dcs-000_dcs: dc = 180 mV        (60 %), step = 6 mV            (2 %)
    dcs-000_dcs: dc = 186 mV        (62 %), step = 6 mV            (2 %)
    dcs-000_dcs: dc = 192 mV        (64 %), step = 6 mV            (2 %)
    dcs-000_dcs: dc = 198 mV        (66 %), step = 6 mV            (2 %)
    dcs-000_dcs: dc = 204 mV        (68 %), step = 6 mV            (2 %)
    dcs-000_dcs: dc = 210 mV        (70 %), step = 6 mV            (2 %)
    dcs-000_dcs: dc = 216 mV        (72 %), step = 6 mV            (2 %)
    dcs-000_dcs: dc = 222 mV        (74 %), step = 6 mV            (2 %)
    dcs-000_dcs: dc = 228 mV        (76 %), step = 6 mV            (2 %)
    dcs-000_dcs: dc = 234 mV        (78 %), step = 6 mV            (2 %)
    dcs-000_dcs: dc = 240 mV        (80 %), step = 6 mV            (2 %)
    dcs-000_dcs: dc = 246 mV        (82 %), step = 6 mV            (2 %)
    dcs-000_dcs: dc = 252 mV        (84 %), step = 6 mV            (2 %)
    dcs-000_dcs: dc = 258 mV        (86 %), step = 6 mV            (2 %)
    dcs-000_dcs: dc = 264 mV        (88 %), step = 6 mV            (2 %)
    dcs-000_dcs: dc = 270 mV        (90 %), step = 6 mV            (2 %)
    dcs-000_dcs: dc = 276 mV        (92 %), step = 6 mV            (2 %)
    dcs-000_dcs: dc = 282 mV        (94 %), step = 6 mV            (2 %)
    dcs-000_dcs: dc = 288 mV        (96 %), step = 6 mV            (2 %)
    dcs-000_dcs: dc = 294 mV        (98 %), step = 6 mV            (2 %)
    dcs-000_dcs: dc = 300 mV       (100 %), step = 6 mV            (2 %)

Maximum value achieved for any signal of each quantity: 
V: V(net06) = 300 mV
I: I(V0:p) = 217.4 nA
DC simulation time: CPU = 12.998 ms, elapsed = 44.5809 ms.

Notice from spectre at dc = 300 mV during DC analysis `dcs-000_dcs', during task `MDLControl'.
    The value of parameter 'dc' has been reset to the original value 0.

Total time required for dc analysis `dcs-000_dcs': CPU = 12.998 ms, elapsed = 44.6219 ms.
Time accumulated: CPU = 5.42217 s, elapsed = 6.22519 s.
Peak resident memory used = 227 Mbytes.


Warning from spectre.
    WARNING (SPECTRE-17101): The value 'psf' specified for the 'checklimitdest' option will no longer be supported in future releases. Use 'spectre -h' to see other recommended values for the 'checklimitdest' option.
    WARNING (SPECTRE-17101): The value 'psf' specified for the 'checklimitdest' option will no longer be supported in future releases. Use 'spectre -h' to see other recommended values for the 'checklimitdest' option.


************************************************************
Transient Analysis `trans-000_trans': time = (0 s -> 200 ns)
************************************************************
DC simulation time: CPU = 1 ms, elapsed = 390.053 us.

Opening the PSFXL file ./input.raw/trans-000_trans.tran.tran ...
Important parameter values:
    start = 0 s
    outputstart = 0 s
    stop = 200 ns
    step = 200 ps
    maxstep = 4 ns
    ic = all
    useprevic = no
    skipdc = no
    reltol = 1e-03
    abstol(V) = 1 uV
    abstol(I) = 1 pA
    temp = 27 C
    tnom = 27 C
    tempeffects = all
    errpreset = moderate
    method = traponly
    lteratio = 3.5
    relref = sigglobal
    cmin = 0 F
    gmin = 1 pS


Output and IC/nodeset summary:
                 save   3       (current)
                 save   5       (voltage)

...

Notice from spectre at time = 12.449 ns during transient analysis `trans-000_trans', during task `MDLControl'.
    Found trapezoidal ringing on node V1:p.

....

Notice from spectre at time = 16.449 ns during transient analysis `trans-000_trans', during task `MDLControl'.
    Found trapezoidal ringing on node V1:p.

......

Notice from spectre at time = 20.449 ns during transient analysis `trans-000_trans', during task `MDLControl'.
    Found trapezoidal ringing on node V1:p.

......9

Notice from spectre at time = 22.7245 ns during transient analysis `trans-000_trans', during task `MDLControl'.
    Found trapezoidal ringing on node V1:p.

......9.

Notice from spectre at time = 25 ns during transient analysis `trans-000_trans', during task `MDLControl'.
    Found trapezoidal ringing on node V1:p.
        Further occurrences of this notice will be suppressed.

......9......8......7......6......5......4......3......2......1......0
Number of accepted tran steps =             267

Notice from spectre during transient analysis `trans-000_trans', during task `MDLControl'.
    Trapezoidal ringing is detected during tran analysis.
        Please use method=trap for better results and performance.


Maximum value achieved for any signal of each quantity: 
V: V(I22.mp1:int_d) = 357 mV
I: I(V0:p) = 73.22 uA
If your circuit contains signals of the same quantity that are vastly different in size (such as high voltage circuitry combined with low voltage control circuitry), you should consider specifying global option `bin_relref=yes'.

~~~~~~~~~~~~~~~~~~~~~~~~~~~~~~~~~
Post-Transient Simulation Summary
~~~~~~~~~~~~~~~~~~~~~~~~~~~~~~~~~
   -   To further speed up simulation, consider
          add ++aps on command line
~~~~~~~~~~~~~~~~~~~~~~~~~~~~~~~~~


During simulation, the CPU load for active processors is :
         0 (11.0 %)      1 (78.8 %)      2 (2.7 %)      
        Total: 92.8%
Initial condition solution time: CPU = 1 ms, elapsed = 435.114 us.
Intrinsic tran analysis time:    CPU = 44.993 ms, elapsed = 70.873 ms.
Total time required for tran analysis `trans-000_trans': CPU = 48.992 ms, elapsed = 73.3631 ms.
Time accumulated: CPU = 5.50616 s, elapsed = 6.33562 s.
Peak resident memory used = 227 Mbytes.


Notice from spectre during task `MDLControl'.
    17 notices suppressed.


**************************************************
DC Analysis `dcs-000_dcs': V2:dc = (0 V -> 300 mV)
**************************************************

Opening the PSF file ./input.raw/dcs-000_dcs.dc ...
Important parameter values:
    reltol = 1e-03
    abstol(V) = 1 uV
    abstol(I) = 1 pA
    temp = 27 C
    tnom = 27 C
    tempeffects = all
    gmindc = 1 pS
    dcs-000_dcs: dc = 12 mV          (4 %), step = 6 mV            (2 %)
    dcs-000_dcs: dc = 18 mV          (6 %), step = 6 mV            (2 %)
    dcs-000_dcs: dc = 24 mV          (8 %), step = 6 mV            (2 %)
    dcs-000_dcs: dc = 30 mV         (10 %), step = 6 mV            (2 %)
    dcs-000_dcs: dc = 36 mV         (12 %), step = 6 mV            (2 %)
    dcs-000_dcs: dc = 42 mV         (14 %), step = 6 mV            (2 %)
    dcs-000_dcs: dc = 48 mV         (16 %), step = 6 mV            (2 %)
    dcs-000_dcs: dc = 54 mV         (18 %), step = 6 mV            (2 %)
    dcs-000_dcs: dc = 60 mV         (20 %), step = 6 mV            (2 %)
    dcs-000_dcs: dc = 66 mV         (22 %), step = 6 mV            (2 %)
    dcs-000_dcs: dc = 72 mV         (24 %), step = 6 mV            (2 %)
    dcs-000_dcs: dc = 78 mV         (26 %), step = 6 mV            (2 %)
    dcs-000_dcs: dc = 84 mV         (28 %), step = 6 mV            (2 %)
    dcs-000_dcs: dc = 90 mV         (30 %), step = 6 mV            (2 %)
    dcs-000_dcs: dc = 96 mV         (32 %), step = 6 mV            (2 %)
    dcs-000_dcs: dc = 102 mV        (34 %), step = 6 mV            (2 %)
    dcs-000_dcs: dc = 108 mV        (36 %), step = 6 mV            (2 %)
    dcs-000_dcs: dc = 114 mV        (38 %), step = 6 mV            (2 %)
    dcs-000_dcs: dc = 120 mV        (40 %), step = 6 mV            (2 %)
    dcs-000_dcs: dc = 126 mV        (42 %), step = 6 mV            (2 %)
    dcs-000_dcs: dc = 132 mV        (44 %), step = 6 mV            (2 %)
    dcs-000_dcs: dc = 138 mV        (46 %), step = 6 mV            (2 %)
    dcs-000_dcs: dc = 144 mV        (48 %), step = 6 mV            (2 %)
    dcs-000_dcs: dc = 150 mV        (50 %), step = 6 mV            (2 %)
    dcs-000_dcs: dc = 156 mV        (52 %), step = 6 mV            (2 %)
    dcs-000_dcs: dc = 162 mV        (54 %), step = 6 mV            (2 %)
    dcs-000_dcs: dc = 168 mV        (56 %), step = 6 mV            (2 %)
    dcs-000_dcs: dc = 174 mV        (58 %), step = 6 mV            (2 %)
    dcs-000_dcs: dc = 180 mV        (60 %), step = 6 mV            (2 %)
    dcs-000_dcs: dc = 186 mV        (62 %), step = 6 mV            (2 %)
    dcs-000_dcs: dc = 192 mV        (64 %), step = 6 mV            (2 %)
    dcs-000_dcs: dc = 198 mV        (66 %), step = 6 mV            (2 %)
    dcs-000_dcs: dc = 204 mV        (68 %), step = 6 mV            (2 %)
    dcs-000_dcs: dc = 210 mV        (70 %), step = 6 mV            (2 %)
    dcs-000_dcs: dc = 216 mV        (72 %), step = 6 mV            (2 %)
    dcs-000_dcs: dc = 222 mV        (74 %), step = 6 mV            (2 %)
    dcs-000_dcs: dc = 228 mV        (76 %), step = 6 mV            (2 %)
    dcs-000_dcs: dc = 234 mV        (78 %), step = 6 mV            (2 %)
    dcs-000_dcs: dc = 240 mV        (80 %), step = 6 mV            (2 %)
    dcs-000_dcs: dc = 246 mV        (82 %), step = 6 mV            (2 %)
    dcs-000_dcs: dc = 252 mV        (84 %), step = 6 mV            (2 %)
    dcs-000_dcs: dc = 258 mV        (86 %), step = 6 mV            (2 %)
    dcs-000_dcs: dc = 264 mV        (88 %), step = 6 mV            (2 %)
    dcs-000_dcs: dc = 270 mV        (90 %), step = 6 mV            (2 %)
    dcs-000_dcs: dc = 276 mV        (92 %), step = 6 mV            (2 %)
    dcs-000_dcs: dc = 282 mV        (94 %), step = 6 mV            (2 %)
    dcs-000_dcs: dc = 288 mV        (96 %), step = 6 mV            (2 %)
    dcs-000_dcs: dc = 294 mV        (98 %), step = 6 mV            (2 %)
    dcs-000_dcs: dc = 300 mV       (100 %), step = 6 mV            (2 %)

Maximum value achieved for any signal of each quantity: 
V: V(net06) = 300 mV
I: I(V0:p) = 217.3 nA
DC simulation time: CPU = 12.998 ms, elapsed = 48.1579 ms.

Notice from spectre at dc = 300 mV during DC analysis `dcs-000_dcs', during task `MDLControl'.
    The value of parameter 'dc' has been reset to the original value 0.

Total time required for dc analysis `dcs-000_dcs': CPU = 12.998 ms, elapsed = 48.198 ms.
Time accumulated: CPU = 5.51916 s, elapsed = 6.38437 s.
Peak resident memory used = 227 Mbytes.


Warning from spectre.
    WARNING (SPECTRE-17101): The value 'psf' specified for the 'checklimitdest' option will no longer be supported in future releases. Use 'spectre -h' to see other recommended values for the 'checklimitdest' option.
    WARNING (SPECTRE-17101): The value 'psf' specified for the 'checklimitdest' option will no longer be supported in future releases. Use 'spectre -h' to see other recommended values for the 'checklimitdest' option.
    WARNING (SPECTRE-17101): The value 'psf' specified for the 'checklimitdest' option will no longer be supported in future releases. Use 'spectre -h' to see other recommended values for the 'checklimitdest' option.
    WARNING (SPECTRE-17101): The value 'psf' specified for the 'checklimitdest' option will no longer be supported in future releases. Use 'spectre -h' to see other recommended values for the 'checklimitdest' option.


************************************************************
Transient Analysis `trans-000_trans': time = (0 s -> 200 ns)
************************************************************
DC simulation time: CPU = 0 s, elapsed = 413.895 us.

Opening the PSFXL file ./input.raw/trans-000_trans.tran.tran ...
Important parameter values:
    start = 0 s
    outputstart = 0 s
    stop = 200 ns
    step = 200 ps
    maxstep = 4 ns
    ic = all
    useprevic = no
    skipdc = no
    reltol = 1e-03
    abstol(V) = 1 uV
    abstol(I) = 1 pA
    temp = 27 C
    tnom = 27 C
    tempeffects = all
    errpreset = moderate
    method = traponly
    lteratio = 3.5
    relref = sigglobal
    cmin = 0 F
    gmin = 1 pS


Output and IC/nodeset summary:
                 save   3       (current)
                 save   5       (voltage)

..

Notice from spectre at time = 9.06197 ns during transient analysis `trans-000_trans', during task `MDLControl'.
    Found trapezoidal ringing on node V2:p.

...

Notice from spectre at time = 13.062 ns during transient analysis `trans-000_trans', during task `MDLControl'.
    Found trapezoidal ringing on node V2:p.

.....

Notice from spectre at time = 17.062 ns during transient analysis `trans-000_trans', during task `MDLControl'.
    Found trapezoidal ringing on node V2:p.

......

Notice from spectre at time = 21.062 ns during transient analysis `trans-000_trans', during task `MDLControl'.
    Found trapezoidal ringing on node V2:p.

......9

Notice from spectre at time = 25 ns during transient analysis `trans-000_trans', during task `MDLControl'.
    Found trapezoidal ringing on node V2:p.
        Further occurrences of this notice will be suppressed.

......9......8......7......6......5......4......3......2......1......0
Number of accepted tran steps =             280

Notice from spectre during transient analysis `trans-000_trans', during task `MDLControl'.
    Trapezoidal ringing is detected during tran analysis.
        Please use method=trap for better results and performance.


Maximum value achieved for any signal of each quantity: 
V: V(I22.mp0:int_d) = 380.3 mV
I: I(V1:p) = 51.12 uA
If your circuit contains signals of the same quantity that are vastly different in size (such as high voltage circuitry combined with low voltage control circuitry), you should consider specifying global option `bin_relref=yes'.

~~~~~~~~~~~~~~~~~~~~~~~~~~~~~~~~~
Post-Transient Simulation Summary
~~~~~~~~~~~~~~~~~~~~~~~~~~~~~~~~~
   -   To further speed up simulation, consider
          add ++aps on command line
~~~~~~~~~~~~~~~~~~~~~~~~~~~~~~~~~


During simulation, the CPU load for active processors is :
         0 (12.7 %)      1 (76.6 %)      2 (3.0 %)      
        Total: 92.7%
Initial condition solution time: CPU = 0 s, elapsed = 458.956 us.
Intrinsic tran analysis time:    CPU = 45.994 ms, elapsed = 72.0909 ms.
Total time required for tran analysis `trans-000_trans': CPU = 48.993 ms, elapsed = 74.604 ms.
Time accumulated: CPU = 5.63514 s, elapsed = 6.52798 s.
Peak resident memory used = 227 Mbytes.


Notice from spectre during task `MDLControl'.
    43 notices suppressed.


**************************************************
DC Analysis `dcs-000_dcs': V2:dc = (0 V -> 300 mV)
**************************************************

Opening the PSF file ./input.raw/dcs-000_dcs.dc ...
Important parameter values:
    reltol = 1e-03
    abstol(V) = 1 uV
    abstol(I) = 1 pA
    temp = 27 C
    tnom = 27 C
    tempeffects = all
    gmindc = 1 pS
    dcs-000_dcs: dc = 12 mV          (4 %), step = 6 mV            (2 %)
    dcs-000_dcs: dc = 18 mV          (6 %), step = 6 mV            (2 %)
    dcs-000_dcs: dc = 24 mV          (8 %), step = 6 mV            (2 %)
    dcs-000_dcs: dc = 30 mV         (10 %), step = 6 mV            (2 %)
    dcs-000_dcs: dc = 36 mV         (12 %), step = 6 mV            (2 %)
    dcs-000_dcs: dc = 42 mV         (14 %), step = 6 mV            (2 %)
    dcs-000_dcs: dc = 48 mV         (16 %), step = 6 mV            (2 %)
    dcs-000_dcs: dc = 54 mV         (18 %), step = 6 mV            (2 %)
    dcs-000_dcs: dc = 60 mV         (20 %), step = 6 mV            (2 %)
    dcs-000_dcs: dc = 66 mV         (22 %), step = 6 mV            (2 %)
    dcs-000_dcs: dc = 72 mV         (24 %), step = 6 mV            (2 %)
    dcs-000_dcs: dc = 78 mV         (26 %), step = 6 mV            (2 %)
    dcs-000_dcs: dc = 84 mV         (28 %), step = 6 mV            (2 %)
    dcs-000_dcs: dc = 90 mV         (30 %), step = 6 mV            (2 %)
    dcs-000_dcs: dc = 96 mV         (32 %), step = 6 mV            (2 %)
    dcs-000_dcs: dc = 102 mV        (34 %), step = 6 mV            (2 %)
    dcs-000_dcs: dc = 108 mV        (36 %), step = 6 mV            (2 %)
    dcs-000_dcs: dc = 114 mV        (38 %), step = 6 mV            (2 %)
    dcs-000_dcs: dc = 120 mV        (40 %), step = 6 mV            (2 %)
    dcs-000_dcs: dc = 126 mV        (42 %), step = 6 mV            (2 %)
    dcs-000_dcs: dc = 132 mV        (44 %), step = 6 mV            (2 %)
    dcs-000_dcs: dc = 138 mV        (46 %), step = 6 mV            (2 %)
    dcs-000_dcs: dc = 144 mV        (48 %), step = 6 mV            (2 %)
    dcs-000_dcs: dc = 150 mV        (50 %), step = 6 mV            (2 %)
    dcs-000_dcs: dc = 156 mV        (52 %), step = 6 mV            (2 %)
    dcs-000_dcs: dc = 162 mV        (54 %), step = 6 mV            (2 %)
    dcs-000_dcs: dc = 168 mV        (56 %), step = 6 mV            (2 %)
    dcs-000_dcs: dc = 174 mV        (58 %), step = 6 mV            (2 %)
    dcs-000_dcs: dc = 180 mV        (60 %), step = 6 mV            (2 %)
    dcs-000_dcs: dc = 186 mV        (62 %), step = 6 mV            (2 %)
    dcs-000_dcs: dc = 192 mV        (64 %), step = 6 mV            (2 %)
    dcs-000_dcs: dc = 198 mV        (66 %), step = 6 mV            (2 %)
    dcs-000_dcs: dc = 204 mV        (68 %), step = 6 mV            (2 %)
    dcs-000_dcs: dc = 210 mV        (70 %), step = 6 mV            (2 %)
    dcs-000_dcs: dc = 216 mV        (72 %), step = 6 mV            (2 %)
    dcs-000_dcs: dc = 222 mV        (74 %), step = 6 mV            (2 %)
    dcs-000_dcs: dc = 228 mV        (76 %), step = 6 mV            (2 %)
    dcs-000_dcs: dc = 234 mV        (78 %), step = 6 mV            (2 %)
    dcs-000_dcs: dc = 240 mV        (80 %), step = 6 mV            (2 %)
    dcs-000_dcs: dc = 246 mV        (82 %), step = 6 mV            (2 %)
    dcs-000_dcs: dc = 252 mV        (84 %), step = 6 mV            (2 %)
    dcs-000_dcs: dc = 258 mV        (86 %), step = 6 mV            (2 %)
    dcs-000_dcs: dc = 264 mV        (88 %), step = 6 mV            (2 %)
    dcs-000_dcs: dc = 270 mV        (90 %), step = 6 mV            (2 %)
    dcs-000_dcs: dc = 276 mV        (92 %), step = 6 mV            (2 %)
    dcs-000_dcs: dc = 282 mV        (94 %), step = 6 mV            (2 %)
    dcs-000_dcs: dc = 288 mV        (96 %), step = 6 mV            (2 %)
    dcs-000_dcs: dc = 294 mV        (98 %), step = 6 mV            (2 %)
    dcs-000_dcs: dc = 300 mV       (100 %), step = 6 mV            (2 %)

Maximum value achieved for any signal of each quantity: 
V: V(net06) = 300 mV
I: I(V0:p) = 1.1 nA
DC simulation time: CPU = 11.997 ms, elapsed = 47.2322 ms.

Notice from spectre at dc = 300 mV during DC analysis `dcs-000_dcs', during task `MDLControl'.
    The value of parameter 'dc' has been reset to the original value 0.

Total time required for dc analysis `dcs-000_dcs': CPU = 11.997 ms, elapsed = 47.2732 ms.
Time accumulated: CPU = 5.64814 s, elapsed = 6.57581 s.
Peak resident memory used = 227 Mbytes.


Warning from spectre.
    WARNING (SPECTRE-17101): The value 'psf' specified for the 'checklimitdest' option will no longer be supported in future releases. Use 'spectre -h' to see other recommended values for the 'checklimitdest' option.


************************************************************
Transient Analysis `trans-000_trans': time = (0 s -> 200 ns)
************************************************************
DC simulation time: CPU = 999 us, elapsed = 449.896 us.

Opening the PSFXL file ./input.raw/trans-000_trans.tran.tran ...
Important parameter values:
    start = 0 s
    outputstart = 0 s
    stop = 200 ns
    step = 200 ps
    maxstep = 4 ns
    ic = all
    useprevic = no
    skipdc = no
    reltol = 1e-03
    abstol(V) = 1 uV
    abstol(I) = 1 pA
    temp = 27 C
    tnom = 27 C
    tempeffects = all
    errpreset = moderate
    method = traponly
    lteratio = 3.5
    relref = sigglobal
    cmin = 0 F
    gmin = 1 pS


Output and IC/nodeset summary:
                 save   3       (current)
                 save   5       (voltage)

..

Notice from spectre at time = 9.0619 ns during transient analysis `trans-000_trans', during task `MDLControl'.
    Found trapezoidal ringing on node V2:p.

...

Notice from spectre at time = 13.0619 ns during transient analysis `trans-000_trans', during task `MDLControl'.
    Found trapezoidal ringing on node V2:p.

.....

Notice from spectre at time = 17.0619 ns during transient analysis `trans-000_trans', during task `MDLControl'.
    Found trapezoidal ringing on node V2:p.

......

Notice from spectre at time = 21.0619 ns during transient analysis `trans-000_trans', during task `MDLControl'.
    Found trapezoidal ringing on node V2:p.

......9

Notice from spectre at time = 25 ns during transient analysis `trans-000_trans', during task `MDLControl'.
    Found trapezoidal ringing on node V2:p.
        Further occurrences of this notice will be suppressed.

......9......8......7......6......5......4......3......2......1......0
Number of accepted tran steps =             280

Notice from spectre during transient analysis `trans-000_trans', during task `MDLControl'.
    Trapezoidal ringing is detected during tran analysis.
        Please use method=trap for better results and performance.


Maximum value achieved for any signal of each quantity: 
V: V(I22.mp1:int_d) = 380.3 mV
I: I(V1:p) = 51.12 uA
If your circuit contains signals of the same quantity that are vastly different in size (such as high voltage circuitry combined with low voltage control circuitry), you should consider specifying global option `bin_relref=yes'.

~~~~~~~~~~~~~~~~~~~~~~~~~~~~~~~~~
Post-Transient Simulation Summary
~~~~~~~~~~~~~~~~~~~~~~~~~~~~~~~~~
   -   To further speed up simulation, consider
          add ++aps on command line
~~~~~~~~~~~~~~~~~~~~~~~~~~~~~~~~~


During simulation, the CPU load for active processors is :
         0 (13.3 %)      1 (75.7 %)      2 (3.1 %)      
        Total: 92.5%
Initial condition solution time: CPU = 999 us, elapsed = 491.858 us.
Intrinsic tran analysis time:    CPU = 37.995 ms, elapsed = 65.2759 ms.
Total time required for tran analysis `trans-000_trans': CPU = 40.994 ms, elapsed = 67.827 ms.
Time accumulated: CPU = 5.70613 s, elapsed = 6.66203 s.
Peak resident memory used = 227 Mbytes.


Notice from spectre during task `MDLControl'.
    43 notices suppressed.


**************************************************
DC Analysis `dcs-000_dcs': V2:dc = (0 V -> 300 mV)
**************************************************

Opening the PSF file ./input.raw/dcs-000_dcs.dc ...
Important parameter values:
    reltol = 1e-03
    abstol(V) = 1 uV
    abstol(I) = 1 pA
    temp = 27 C
    tnom = 27 C
    tempeffects = all
    gmindc = 1 pS
    dcs-000_dcs: dc = 12 mV          (4 %), step = 6 mV            (2 %)
    dcs-000_dcs: dc = 18 mV          (6 %), step = 6 mV            (2 %)
    dcs-000_dcs: dc = 24 mV          (8 %), step = 6 mV            (2 %)
    dcs-000_dcs: dc = 30 mV         (10 %), step = 6 mV            (2 %)
    dcs-000_dcs: dc = 36 mV         (12 %), step = 6 mV            (2 %)
    dcs-000_dcs: dc = 42 mV         (14 %), step = 6 mV            (2 %)
    dcs-000_dcs: dc = 48 mV         (16 %), step = 6 mV            (2 %)
    dcs-000_dcs: dc = 54 mV         (18 %), step = 6 mV            (2 %)
    dcs-000_dcs: dc = 60 mV         (20 %), step = 6 mV            (2 %)
    dcs-000_dcs: dc = 66 mV         (22 %), step = 6 mV            (2 %)
    dcs-000_dcs: dc = 72 mV         (24 %), step = 6 mV            (2 %)
    dcs-000_dcs: dc = 78 mV         (26 %), step = 6 mV            (2 %)
    dcs-000_dcs: dc = 84 mV         (28 %), step = 6 mV            (2 %)
    dcs-000_dcs: dc = 90 mV         (30 %), step = 6 mV            (2 %)
    dcs-000_dcs: dc = 96 mV         (32 %), step = 6 mV            (2 %)
    dcs-000_dcs: dc = 102 mV        (34 %), step = 6 mV            (2 %)
    dcs-000_dcs: dc = 108 mV        (36 %), step = 6 mV            (2 %)
    dcs-000_dcs: dc = 114 mV        (38 %), step = 6 mV            (2 %)
    dcs-000_dcs: dc = 120 mV        (40 %), step = 6 mV            (2 %)
    dcs-000_dcs: dc = 126 mV        (42 %), step = 6 mV            (2 %)
    dcs-000_dcs: dc = 132 mV        (44 %), step = 6 mV            (2 %)
    dcs-000_dcs: dc = 138 mV        (46 %), step = 6 mV            (2 %)
    dcs-000_dcs: dc = 144 mV        (48 %), step = 6 mV            (2 %)
    dcs-000_dcs: dc = 150 mV        (50 %), step = 6 mV            (2 %)
    dcs-000_dcs: dc = 156 mV        (52 %), step = 6 mV            (2 %)
    dcs-000_dcs: dc = 162 mV        (54 %), step = 6 mV            (2 %)
    dcs-000_dcs: dc = 168 mV        (56 %), step = 6 mV            (2 %)
    dcs-000_dcs: dc = 174 mV        (58 %), step = 6 mV            (2 %)
    dcs-000_dcs: dc = 180 mV        (60 %), step = 6 mV            (2 %)
    dcs-000_dcs: dc = 186 mV        (62 %), step = 6 mV            (2 %)
    dcs-000_dcs: dc = 192 mV        (64 %), step = 6 mV            (2 %)
    dcs-000_dcs: dc = 198 mV        (66 %), step = 6 mV            (2 %)
    dcs-000_dcs: dc = 204 mV        (68 %), step = 6 mV            (2 %)
    dcs-000_dcs: dc = 210 mV        (70 %), step = 6 mV            (2 %)
    dcs-000_dcs: dc = 216 mV        (72 %), step = 6 mV            (2 %)
    dcs-000_dcs: dc = 222 mV        (74 %), step = 6 mV            (2 %)
    dcs-000_dcs: dc = 228 mV        (76 %), step = 6 mV            (2 %)
    dcs-000_dcs: dc = 234 mV        (78 %), step = 6 mV            (2 %)
    dcs-000_dcs: dc = 240 mV        (80 %), step = 6 mV            (2 %)
    dcs-000_dcs: dc = 246 mV        (82 %), step = 6 mV            (2 %)
    dcs-000_dcs: dc = 252 mV        (84 %), step = 6 mV            (2 %)
    dcs-000_dcs: dc = 258 mV        (86 %), step = 6 mV            (2 %)
    dcs-000_dcs: dc = 264 mV        (88 %), step = 6 mV            (2 %)
    dcs-000_dcs: dc = 270 mV        (90 %), step = 6 mV            (2 %)
    dcs-000_dcs: dc = 276 mV        (92 %), step = 6 mV            (2 %)
    dcs-000_dcs: dc = 282 mV        (94 %), step = 6 mV            (2 %)
    dcs-000_dcs: dc = 288 mV        (96 %), step = 6 mV            (2 %)
    dcs-000_dcs: dc = 294 mV        (98 %), step = 6 mV            (2 %)
    dcs-000_dcs: dc = 300 mV       (100 %), step = 6 mV            (2 %)

Maximum value achieved for any signal of each quantity: 
V: V(net06) = 300 mV
I: I(V0:p) = 1.1 nA
DC simulation time: CPU = 14.998 ms, elapsed = 50.54 ms.

Notice from spectre at dc = 300 mV during DC analysis `dcs-000_dcs', during task `MDLControl'.
    The value of parameter 'dc' has been reset to the original value 0.

Total time required for dc analysis `dcs-000_dcs': CPU = 14.998 ms, elapsed = 50.5791 ms.
Time accumulated: CPU = 5.72113 s, elapsed = 6.71315 s.
Peak resident memory used = 227 Mbytes.


Warning from spectre.
    WARNING (SPECTRE-17101): The value 'psf' specified for the 'checklimitdest' option will no longer be supported in future releases. Use 'spectre -h' to see other recommended values for the 'checklimitdest' option.
    WARNING (SPECTRE-17101): The value 'psf' specified for the 'checklimitdest' option will no longer be supported in future releases. Use 'spectre -h' to see other recommended values for the 'checklimitdest' option.


************************************************************
Transient Analysis `trans-000_trans': time = (0 s -> 200 ns)
************************************************************
DC simulation time: CPU = 0 s, elapsed = 525.951 us.

Opening the PSFXL file ./input.raw/trans-000_trans.tran.tran ...
Important parameter values:
    start = 0 s
    outputstart = 0 s
    stop = 200 ns
    step = 200 ps
    maxstep = 4 ns
    ic = all
    useprevic = no
    skipdc = no
    reltol = 1e-03
    abstol(V) = 1 uV
    abstol(I) = 1 pA
    temp = 27 C
    tnom = 27 C
    tempeffects = all
    errpreset = moderate
    method = traponly
    lteratio = 3.5
    relref = sigglobal
    cmin = 0 F
    gmin = 1 pS


Output and IC/nodeset summary:
                 save   3       (current)
                 save   5       (voltage)

..

Notice from spectre at time = 9.06183 ns during transient analysis `trans-000_trans', during task `MDLControl'.
    Found trapezoidal ringing on node V2:p.

...

Notice from spectre at time = 13.0618 ns during transient analysis `trans-000_trans', during task `MDLControl'.
    Found trapezoidal ringing on node V2:p.

.....

Notice from spectre at time = 17.0618 ns during transient analysis `trans-000_trans', during task `MDLControl'.
    Found trapezoidal ringing on node V2:p.

......

Notice from spectre at time = 21.0618 ns during transient analysis `trans-000_trans', during task `MDLControl'.
    Found trapezoidal ringing on node V2:p.

......9

Notice from spectre at time = 25 ns during transient analysis `trans-000_trans', during task `MDLControl'.
    Found trapezoidal ringing on node V2:p.
        Further occurrences of this notice will be suppressed.

......9......8......7......6......5......4......3......2......1......0
Number of accepted tran steps =             280

Notice from spectre during transient analysis `trans-000_trans', during task `MDLControl'.
    Trapezoidal ringing is detected during tran analysis.
        Please use method=trap for better results and performance.


Maximum value achieved for any signal of each quantity: 
V: V(I22.mp0:int_d) = 380.3 mV
I: I(V1:p) = 51.12 uA
If your circuit contains signals of the same quantity that are vastly different in size (such as high voltage circuitry combined with low voltage control circuitry), you should consider specifying global option `bin_relref=yes'.

~~~~~~~~~~~~~~~~~~~~~~~~~~~~~~~~~
Post-Transient Simulation Summary
~~~~~~~~~~~~~~~~~~~~~~~~~~~~~~~~~
   -   To further speed up simulation, consider
          add ++aps on command line
~~~~~~~~~~~~~~~~~~~~~~~~~~~~~~~~~


During simulation, the CPU load for active processors is :
         0 (14.5 %)      1 (74.1 %)      2 (3.1 %)      
        Total: 92.3%
Initial condition solution time: CPU = 0 s, elapsed = 570.059 us.
Intrinsic tran analysis time:    CPU = 43.993 ms, elapsed = 76.4291 ms.
Total time required for tran analysis `trans-000_trans': CPU = 45.993 ms, elapsed = 79.6289 ms.
Time accumulated: CPU = 5.80312 s, elapsed = 6.82932 s.
Peak resident memory used = 227 Mbytes.


Notice from spectre during task `MDLControl'.
    43 notices suppressed.


**************************************************
DC Analysis `dcs-000_dcs': V2:dc = (0 V -> 300 mV)
**************************************************

Opening the PSF file ./input.raw/dcs-000_dcs.dc ...
Important parameter values:
    reltol = 1e-03
    abstol(V) = 1 uV
    abstol(I) = 1 pA
    temp = 27 C
    tnom = 27 C
    tempeffects = all
    gmindc = 1 pS
    dcs-000_dcs: dc = 12 mV          (4 %), step = 6 mV            (2 %)
    dcs-000_dcs: dc = 18 mV          (6 %), step = 6 mV            (2 %)
    dcs-000_dcs: dc = 24 mV          (8 %), step = 6 mV            (2 %)
    dcs-000_dcs: dc = 30 mV         (10 %), step = 6 mV            (2 %)
    dcs-000_dcs: dc = 36 mV         (12 %), step = 6 mV            (2 %)
    dcs-000_dcs: dc = 42 mV         (14 %), step = 6 mV            (2 %)
    dcs-000_dcs: dc = 48 mV         (16 %), step = 6 mV            (2 %)
    dcs-000_dcs: dc = 54 mV         (18 %), step = 6 mV            (2 %)
    dcs-000_dcs: dc = 60 mV         (20 %), step = 6 mV            (2 %)
    dcs-000_dcs: dc = 66 mV         (22 %), step = 6 mV            (2 %)
    dcs-000_dcs: dc = 72 mV         (24 %), step = 6 mV            (2 %)
    dcs-000_dcs: dc = 78 mV         (26 %), step = 6 mV            (2 %)
    dcs-000_dcs: dc = 84 mV         (28 %), step = 6 mV            (2 %)
    dcs-000_dcs: dc = 90 mV         (30 %), step = 6 mV            (2 %)
    dcs-000_dcs: dc = 96 mV         (32 %), step = 6 mV            (2 %)
    dcs-000_dcs: dc = 102 mV        (34 %), step = 6 mV            (2 %)
    dcs-000_dcs: dc = 108 mV        (36 %), step = 6 mV            (2 %)
    dcs-000_dcs: dc = 114 mV        (38 %), step = 6 mV            (2 %)
    dcs-000_dcs: dc = 120 mV        (40 %), step = 6 mV            (2 %)
    dcs-000_dcs: dc = 126 mV        (42 %), step = 6 mV            (2 %)
    dcs-000_dcs: dc = 132 mV        (44 %), step = 6 mV            (2 %)
    dcs-000_dcs: dc = 138 mV        (46 %), step = 6 mV            (2 %)
    dcs-000_dcs: dc = 144 mV        (48 %), step = 6 mV            (2 %)
    dcs-000_dcs: dc = 150 mV        (50 %), step = 6 mV            (2 %)
    dcs-000_dcs: dc = 156 mV        (52 %), step = 6 mV            (2 %)
    dcs-000_dcs: dc = 162 mV        (54 %), step = 6 mV            (2 %)
    dcs-000_dcs: dc = 168 mV        (56 %), step = 6 mV            (2 %)
    dcs-000_dcs: dc = 174 mV        (58 %), step = 6 mV            (2 %)
    dcs-000_dcs: dc = 180 mV        (60 %), step = 6 mV            (2 %)
    dcs-000_dcs: dc = 186 mV        (62 %), step = 6 mV            (2 %)
    dcs-000_dcs: dc = 192 mV        (64 %), step = 6 mV            (2 %)
    dcs-000_dcs: dc = 198 mV        (66 %), step = 6 mV            (2 %)
    dcs-000_dcs: dc = 204 mV        (68 %), step = 6 mV            (2 %)
    dcs-000_dcs: dc = 210 mV        (70 %), step = 6 mV            (2 %)
    dcs-000_dcs: dc = 216 mV        (72 %), step = 6 mV            (2 %)
    dcs-000_dcs: dc = 222 mV        (74 %), step = 6 mV            (2 %)
    dcs-000_dcs: dc = 228 mV        (76 %), step = 6 mV            (2 %)
    dcs-000_dcs: dc = 234 mV        (78 %), step = 6 mV            (2 %)
    dcs-000_dcs: dc = 240 mV        (80 %), step = 6 mV            (2 %)
    dcs-000_dcs: dc = 246 mV        (82 %), step = 6 mV            (2 %)
    dcs-000_dcs: dc = 252 mV        (84 %), step = 6 mV            (2 %)
    dcs-000_dcs: dc = 258 mV        (86 %), step = 6 mV            (2 %)
    dcs-000_dcs: dc = 264 mV        (88 %), step = 6 mV            (2 %)
    dcs-000_dcs: dc = 270 mV        (90 %), step = 6 mV            (2 %)
    dcs-000_dcs: dc = 276 mV        (92 %), step = 6 mV            (2 %)
    dcs-000_dcs: dc = 282 mV        (94 %), step = 6 mV            (2 %)
    dcs-000_dcs: dc = 288 mV        (96 %), step = 6 mV            (2 %)
    dcs-000_dcs: dc = 294 mV        (98 %), step = 6 mV            (2 %)
    dcs-000_dcs: dc = 300 mV       (100 %), step = 6 mV            (2 %)

Maximum value achieved for any signal of each quantity: 
V: V(net06) = 300 mV
I: I(V0:p) = 1.1 nA
DC simulation time: CPU = 15.998 ms, elapsed = 52.6609 ms.

Notice from spectre at dc = 300 mV during DC analysis `dcs-000_dcs', during task `MDLControl'.
    The value of parameter 'dc' has been reset to the original value 0.

Total time required for dc analysis `dcs-000_dcs': CPU = 15.998 ms, elapsed = 52.6991 ms.
Time accumulated: CPU = 5.81911 s, elapsed = 6.88254 s.
Peak resident memory used = 227 Mbytes.


Warning from spectre.
    WARNING (SPECTRE-17101): The value 'psf' specified for the 'checklimitdest' option will no longer be supported in future releases. Use 'spectre -h' to see other recommended values for the 'checklimitdest' option.
    WARNING (SPECTRE-17101): The value 'psf' specified for the 'checklimitdest' option will no longer be supported in future releases. Use 'spectre -h' to see other recommended values for the 'checklimitdest' option.


************************************************************
Transient Analysis `trans-000_trans': time = (0 s -> 200 ns)
************************************************************
DC simulation time: CPU = 0 s, elapsed = 429.153 us.

Opening the PSFXL file ./input.raw/trans-000_trans.tran.tran ...
Important parameter values:
    start = 0 s
    outputstart = 0 s
    stop = 200 ns
    step = 200 ps
    maxstep = 4 ns
    ic = all
    useprevic = no
    skipdc = no
    reltol = 1e-03
    abstol(V) = 1 uV
    abstol(I) = 1 pA
    temp = 27 C
    tnom = 27 C
    tempeffects = all
    errpreset = moderate
    method = traponly
    lteratio = 3.5
    relref = sigglobal
    cmin = 0 F
    gmin = 1 pS


Output and IC/nodeset summary:
                 save   3       (current)
                 save   5       (voltage)

..

Notice from spectre at time = 9.06093 ns during transient analysis `trans-000_trans', during task `MDLControl'.
    Found trapezoidal ringing on node V2:p.

...

Notice from spectre at time = 13.0609 ns during transient analysis `trans-000_trans', during task `MDLControl'.
    Found trapezoidal ringing on node V2:p.

.....

Notice from spectre at time = 17.0609 ns during transient analysis `trans-000_trans', during task `MDLControl'.
    Found trapezoidal ringing on node V2:p.

......

Notice from spectre at time = 21.0609 ns during transient analysis `trans-000_trans', during task `MDLControl'.
    Found trapezoidal ringing on node V2:p.

......9

Notice from spectre at time = 25 ns during transient analysis `trans-000_trans', during task `MDLControl'.
    Found trapezoidal ringing on node V2:p.
        Further occurrences of this notice will be suppressed.

......9......8......7......6......5......4......3......2......1......0
Number of accepted tran steps =             280

Notice from spectre during transient analysis `trans-000_trans', during task `MDLControl'.
    Trapezoidal ringing is detected during tran analysis.
        Please use method=trap for better results and performance.


Maximum value achieved for any signal of each quantity: 
V: V(I22.mp1:int_d) = 380.3 mV
I: I(V1:p) = 51.12 uA
If your circuit contains signals of the same quantity that are vastly different in size (such as high voltage circuitry combined with low voltage control circuitry), you should consider specifying global option `bin_relref=yes'.

~~~~~~~~~~~~~~~~~~~~~~~~~~~~~~~~~
Post-Transient Simulation Summary
~~~~~~~~~~~~~~~~~~~~~~~~~~~~~~~~~
   -   To further speed up simulation, consider
          add ++aps on command line
~~~~~~~~~~~~~~~~~~~~~~~~~~~~~~~~~


During simulation, the CPU load for active processors is :
         0 (15.6 %)      1 (72.5 %)      2 (3.4 %)      
        Total: 92.0%
[...]
    dcs-000_dcs: dc = 66 mV         (22 %), step = 6 mV            (2 %)
    dcs-000_dcs: dc = 72 mV         (24 %), step = 6 mV            (2 %)
    dcs-000_dcs: dc = 78 mV         (26 %), step = 6 mV            (2 %)
    dcs-000_dcs: dc = 84 mV         (28 %), step = 6 mV            (2 %)
    dcs-000_dcs: dc = 90 mV         (30 %), step = 6 mV            (2 %)
    dcs-000_dcs: dc = 96 mV         (32 %), step = 6 mV            (2 %)
    dcs-000_dcs: dc = 102 mV        (34 %), step = 6 mV            (2 %)
    dcs-000_dcs: dc = 108 mV        (36 %), step = 6 mV            (2 %)
    dcs-000_dcs: dc = 114 mV        (38 %), step = 6 mV            (2 %)
    dcs-000_dcs: dc = 120 mV        (40 %), step = 6 mV            (2 %)
    dcs-000_dcs: dc = 126 mV        (42 %), step = 6 mV            (2 %)
    dcs-000_dcs: dc = 132 mV        (44 %), step = 6 mV            (2 %)
    dcs-000_dcs: dc = 138 mV        (46 %), step = 6 mV            (2 %)
    dcs-000_dcs: dc = 144 mV        (48 %), step = 6 mV            (2 %)
    dcs-000_dcs: dc = 150 mV        (50 %), step = 6 mV            (2 %)
    dcs-000_dcs: dc = 156 mV        (52 %), step = 6 mV            (2 %)
    dcs-000_dcs: dc = 162 mV        (54 %), step = 6 mV            (2 %)
    dcs-000_dcs: dc = 168 mV        (56 %), step = 6 mV            (2 %)
    dcs-000_dcs: dc = 174 mV        (58 %), step = 6 mV            (2 %)
    dcs-000_dcs: dc = 180 mV        (60 %), step = 6 mV            (2 %)
    dcs-000_dcs: dc = 186 mV        (62 %), step = 6 mV            (2 %)
    dcs-000_dcs: dc = 192 mV        (64 %), step = 6 mV            (2 %)
    dcs-000_dcs: dc = 198 mV        (66 %), step = 6 mV            (2 %)
    dcs-000_dcs: dc = 204 mV        (68 %), step = 6 mV            (2 %)
    dcs-000_dcs: dc = 210 mV        (70 %), step = 6 mV            (2 %)
    dcs-000_dcs: dc = 216 mV        (72 %), step = 6 mV            (2 %)
    dcs-000_dcs: dc = 222 mV        (74 %), step = 6 mV            (2 %)
    dcs-000_dcs: dc = 228 mV        (76 %), step = 6 mV            (2 %)
    dcs-000_dcs: dc = 234 mV        (78 %), step = 6 mV            (2 %)
    dcs-000_dcs: dc = 240 mV        (80 %), step = 6 mV            (2 %)
    dcs-000_dcs: dc = 246 mV        (82 %), step = 6 mV            (2 %)
    dcs-000_dcs: dc = 252 mV        (84 %), step = 6 mV            (2 %)
    dcs-000_dcs: dc = 258 mV        (86 %), step = 6 mV            (2 %)
    dcs-000_dcs: dc = 264 mV        (88 %), step = 6 mV            (2 %)
    dcs-000_dcs: dc = 270 mV        (90 %), step = 6 mV            (2 %)
    dcs-000_dcs: dc = 276 mV        (92 %), step = 6 mV            (2 %)
    dcs-000_dcs: dc = 282 mV        (94 %), step = 6 mV            (2 %)
    dcs-000_dcs: dc = 288 mV        (96 %), step = 6 mV            (2 %)
    dcs-000_dcs: dc = 294 mV        (98 %), step = 6 mV            (2 %)
    dcs-000_dcs: dc = 300 mV       (100 %), step = 6 mV            (2 %)

Maximum value achieved for any signal of each quantity: 
V: V(net06) = 300 mV
I: I(V0:p) = 7.127 nA
DC simulation time: CPU = 14.998 ms, elapsed = 56.8521 ms.

Notice from spectre at dc = 300 mV during DC analysis `dcs-000_dcs', during task `MDLControl'.
    The value of parameter 'dc' has been reset to the original value 0.

Total time required for dc analysis `dcs-000_dcs': CPU = 14.998 ms, elapsed = 56.8941 ms.
Time accumulated: CPU = 10.7914 s, elapsed = 15.764 s.
Peak resident memory used = 229 Mbytes.


Warning from spectre.
    WARNING (SPECTRE-17101): The value 'psf' specified for the 'checklimitdest' option will no longer be supported in future releases. Use 'spectre -h' to see other recommended values for the 'checklimitdest' option.
    WARNING (SPECTRE-17101): The value 'psf' specified for the 'checklimitdest' option will no longer be supported in future releases. Use 'spectre -h' to see other recommended values for the 'checklimitdest' option.
    WARNING (SPECTRE-17101): The value 'psf' specified for the 'checklimitdest' option will no longer be supported in future releases. Use 'spectre -h' to see other recommended values for the 'checklimitdest' option.
    WARNING (SPECTRE-17101): The value 'psf' specified for the 'checklimitdest' option will no longer be supported in future releases. Use 'spectre -h' to see other recommended values for the 'checklimitdest' option.


************************************************************
Transient Analysis `trans-000_trans': time = (0 s -> 200 ns)
************************************************************
DC simulation time: CPU = 0 s, elapsed = 422.001 us.

Opening the PSFXL file ./input.raw/trans-000_trans.tran.tran ...
Important parameter values:
    start = 0 s
    outputstart = 0 s
    stop = 200 ns
    step = 200 ps
    maxstep = 4 ns
    ic = all
    useprevic = no
    skipdc = no
    reltol = 1e-03
    abstol(V) = 1 uV
    abstol(I) = 1 pA
    temp = 27 C
    tnom = 27 C
    tempeffects = all
    errpreset = moderate
    method = traponly
    lteratio = 3.5
    relref = sigglobal
    cmin = 0 F
    gmin = 1 pS


Output and IC/nodeset summary:
                 save   3       (current)
                 save   5       (voltage)


Notice from spectre at time = 659.091 ps during transient analysis `trans-000_trans', during task `MDLControl'.
    Found trapezoidal ringing on node I22.mn1:int_g.
Notice from spectre at time = 984.082 ps during transient analysis `trans-000_trans', during task `MDLControl'.
    Found trapezoidal ringing on node I22.mn1:int_g.
Notice from spectre at time = 1.3614 ns during transient analysis `trans-000_trans', during task `MDLControl'.
    Found trapezoidal ringing on node I22.mn1:int_g.

.

Notice from spectre at time = 2.27715 ns during transient analysis `trans-000_trans', during task `MDLControl'.
    Found trapezoidal ringing on node I22.mn1:int_g.
Notice from spectre at time = 2.31824 ns during transient analysis `trans-000_trans', during task `MDLControl'.
    Found trapezoidal ringing on node I22.mn1:int_g.
        Further occurrences of this notice will be suppressed.

......9......8......7......6......5......4......3......2......1......0
Number of accepted tran steps =             280

Notice from spectre during transient analysis `trans-000_trans', during task `MDLControl'.
    Trapezoidal ringing is detected during tran analysis.
        Please use method=trap for better results and performance.


Maximum value achieved for any signal of each quantity: 
V: V(I22.mn1:int_d) = 368.3 mV
I: I(V1:p) = 50.87 uA
If your circuit contains signals of the same quantity that are vastly different in size (such as high voltage circuitry combined with low voltage control circuitry), you should consider specifying global option `bin_relref=yes'.

~~~~~~~~~~~~~~~~~~~~~~~~~~~~~~~~~
Post-Transient Simulation Summary
~~~~~~~~~~~~~~~~~~~~~~~~~~~~~~~~~
   -   To further speed up simulation, consider
          add ++aps on command line
~~~~~~~~~~~~~~~~~~~~~~~~~~~~~~~~~


During simulation, the CPU load for active processors is :
         0 (38.3 %)      1 (37.4 %)      2 (6.9 %)       3 (1.7 %)
        Total: 84.3%
Initial condition solution time: CPU = 0 s, elapsed = 464.916 us.
Intrinsic tran analysis time:    CPU = 41.992 ms, elapsed = 66.6981 ms.
Total time required for tran analysis `trans-000_trans': CPU = 43.992 ms, elapsed = 69.253 ms.
Time accumulated: CPU = 10.9023 s, elapsed = 15.9022 s.
Peak resident memory used = 229 Mbytes.


Notice from spectre during task `MDLControl'.
    55 notices suppressed.


**************************************************
DC Analysis `dcs-000_dcs': V2:dc = (0 V -> 300 mV)
**************************************************

Opening the PSF file ./input.raw/dcs-000_dcs.dc ...
Important parameter values:
    reltol = 1e-03
    abstol(V) = 1 uV
    abstol(I) = 1 pA
    temp = 27 C
    tnom = 27 C
    tempeffects = all
    gmindc = 1 pS
    dcs-000_dcs: dc = 12 mV          (4 %), step = 6 mV            (2 %)
    dcs-000_dcs: dc = 18 mV          (6 %), step = 6 mV            (2 %)
    dcs-000_dcs: dc = 24 mV          (8 %), step = 6 mV            (2 %)
    dcs-000_dcs: dc = 30 mV         (10 %), step = 6 mV            (2 %)
    dcs-000_dcs: dc = 36 mV         (12 %), step = 6 mV            (2 %)
    dcs-000_dcs: dc = 42 mV         (14 %), step = 6 mV            (2 %)
    dcs-000_dcs: dc = 48 mV         (16 %), step = 6 mV            (2 %)
    dcs-000_dcs: dc = 54 mV         (18 %), step = 6 mV            (2 %)
    dcs-000_dcs: dc = 60 mV         (20 %), step = 6 mV            (2 %)
    dcs-000_dcs: dc = 66 mV         (22 %), step = 6 mV            (2 %)
    dcs-000_dcs: dc = 72 mV         (24 %), step = 6 mV            (2 %)
    dcs-000_dcs: dc = 78 mV         (26 %), step = 6 mV            (2 %)
    dcs-000_dcs: dc = 84 mV         (28 %), step = 6 mV            (2 %)
    dcs-000_dcs: dc = 90 mV         (30 %), step = 6 mV            (2 %)
    dcs-000_dcs: dc = 96 mV         (32 %), step = 6 mV            (2 %)
    dcs-000_dcs: dc = 102 mV        (34 %), step = 6 mV            (2 %)
    dcs-000_dcs: dc = 108 mV        (36 %), step = 6 mV            (2 %)
    dcs-000_dcs: dc = 114 mV        (38 %), step = 6 mV            (2 %)
    dcs-000_dcs: dc = 120 mV        (40 %), step = 6 mV            (2 %)
    dcs-000_dcs: dc = 126 mV        (42 %), step = 6 mV            (2 %)
    dcs-000_dcs: dc = 132 mV        (44 %), step = 6 mV            (2 %)
    dcs-000_dcs: dc = 138 mV        (46 %), step = 6 mV            (2 %)
    dcs-000_dcs: dc = 144 mV        (48 %), step = 6 mV            (2 %)
    dcs-000_dcs: dc = 150 mV        (50 %), step = 6 mV            (2 %)
    dcs-000_dcs: dc = 156 mV        (52 %), step = 6 mV            (2 %)
    dcs-000_dcs: dc = 162 mV        (54 %), step = 6 mV            (2 %)
    dcs-000_dcs: dc = 168 mV        (56 %), step = 6 mV            (2 %)
    dcs-000_dcs: dc = 174 mV        (58 %), step = 6 mV            (2 %)
    dcs-000_dcs: dc = 180 mV        (60 %), step = 6 mV            (2 %)
    dcs-000_dcs: dc = 186 mV        (62 %), step = 6 mV            (2 %)
    dcs-000_dcs: dc = 192 mV        (64 %), step = 6 mV            (2 %)
    dcs-000_dcs: dc = 198 mV        (66 %), step = 6 mV            (2 %)
    dcs-000_dcs: dc = 204 mV        (68 %), step = 6 mV            (2 %)
    dcs-000_dcs: dc = 210 mV        (70 %), step = 6 mV            (2 %)
    dcs-000_dcs: dc = 216 mV        (72 %), step = 6 mV            (2 %)
    dcs-000_dcs: dc = 222 mV        (74 %), step = 6 mV            (2 %)
    dcs-000_dcs: dc = 228 mV        (76 %), step = 6 mV            (2 %)
    dcs-000_dcs: dc = 234 mV        (78 %), step = 6 mV            (2 %)
    dcs-000_dcs: dc = 240 mV        (80 %), step = 6 mV            (2 %)
    dcs-000_dcs: dc = 246 mV        (82 %), step = 6 mV            (2 %)
    dcs-000_dcs: dc = 252 mV        (84 %), step = 6 mV            (2 %)
    dcs-000_dcs: dc = 258 mV        (86 %), step = 6 mV            (2 %)
    dcs-000_dcs: dc = 264 mV        (88 %), step = 6 mV            (2 %)
    dcs-000_dcs: dc = 270 mV        (90 %), step = 6 mV            (2 %)
    dcs-000_dcs: dc = 276 mV        (92 %), step = 6 mV            (2 %)
    dcs-000_dcs: dc = 282 mV        (94 %), step = 6 mV            (2 %)
    dcs-000_dcs: dc = 288 mV        (96 %), step = 6 mV            (2 %)
    dcs-000_dcs: dc = 294 mV        (98 %), step = 6 mV            (2 %)
    dcs-000_dcs: dc = 300 mV       (100 %), step = 6 mV            (2 %)

Maximum value achieved for any signal of each quantity: 
V: V(net06) = 300 mV
I: I(V0:p) = 7.135 nA
DC simulation time: CPU = 14.999 ms, elapsed = 54.41 ms.

Notice from spectre at dc = 300 mV during DC analysis `dcs-000_dcs', during task `MDLControl'.
    The value of parameter 'dc' has been reset to the original value 0.

Total time required for dc analysis `dcs-000_dcs': CPU = 14.999 ms, elapsed = 54.4529 ms.
Time accumulated: CPU = 10.9173 s, elapsed = 15.9573 s.
Peak resident memory used = 229 Mbytes.


************************************************************
Transient Analysis `trans-000_trans': time = (0 s -> 200 ns)
************************************************************
DC simulation time: CPU = 0 s, elapsed = 475.168 us.

Opening the PSFXL file ./input.raw/trans-000_trans.tran.tran ...
Important parameter values:
    start = 0 s
    outputstart = 0 s
    stop = 200 ns
    step = 200 ps
    maxstep = 4 ns
    ic = all
    useprevic = no
    skipdc = no
    reltol = 1e-03
    abstol(V) = 1 uV
    abstol(I) = 1 pA
    temp = 27 C
    tnom = 27 C
    tempeffects = all
    errpreset = moderate
    method = traponly
    lteratio = 3.5
    relref = sigglobal
    cmin = 0 F
    gmin = 1 pS


Output and IC/nodeset summary:
                 save   3       (current)
                 save   5       (voltage)


Notice from spectre at time = 659.091 ps during transient analysis `trans-000_trans', during task `MDLControl'.
    Found trapezoidal ringing on node I22.mn1:int_g.
Notice from spectre at time = 984.082 ps during transient analysis `trans-000_trans', during task `MDLControl'.
    Found trapezoidal ringing on node I22.mn1:int_g.
Notice from spectre at time = 1.3614 ns during transient analysis `trans-000_trans', during task `MDLControl'.
    Found trapezoidal ringing on node I22.mn1:int_g.

.

Notice from spectre at time = 2.27715 ns during transient analysis `trans-000_trans', during task `MDLControl'.
    Found trapezoidal ringing on node I22.mn1:int_g.
Notice from spectre at time = 2.31824 ns during transient analysis `trans-000_trans', during task `MDLControl'.
    Found trapezoidal ringing on node I22.mn1:int_g.
        Further occurrences of this notice will be suppressed.

......9......8......7......6......5......4......3......2......1......0
Number of accepted tran steps =             280

Notice from spectre during transient analysis `trans-000_trans', during task `MDLControl'.
    Trapezoidal ringing is detected during tran analysis.
        Please use method=trap for better results and performance.


Maximum value achieved for any signal of each quantity: 
V: V(I22.mn1:int_d) = 368.3 mV
I: I(V1:p) = 50.87 uA
If your circuit contains signals of the same quantity that are vastly different in size (such as high voltage circuitry combined with low voltage control circuitry), you should consider specifying global option `bin_relref=yes'.

~~~~~~~~~~~~~~~~~~~~~~~~~~~~~~~~~
Post-Transient Simulation Summary
~~~~~~~~~~~~~~~~~~~~~~~~~~~~~~~~~
   -   To further speed up simulation, consider
          add ++aps on command line
~~~~~~~~~~~~~~~~~~~~~~~~~~~~~~~~~


During simulation, the CPU load for active processors is :
         0 (38.6 %)      1 (37.2 %)      2 (7.2 %)       3 (1.7 %)
        Total: 84.7%
Initial condition solution time: CPU = 0 s, elapsed = 517.13 us.
Intrinsic tran analysis time:    CPU = 38.994 ms, elapsed = 74.6269 ms.
Total time required for tran analysis `trans-000_trans': CPU = 41.993 ms, elapsed = 77.6219 ms.
Time accumulated: CPU = 10.9613 s, elapsed = 16.0367 s.
Peak resident memory used = 229 Mbytes.


Notice from spectre during task `MDLControl'.
    55 notices suppressed.


**************************************************
DC Analysis `dcs-000_dcs': V2:dc = (0 V -> 300 mV)
**************************************************

Opening the PSF file ./input.raw/dcs-000_dcs.dc ...
Important parameter values:
    reltol = 1e-03
    abstol(V) = 1 uV
    abstol(I) = 1 pA
    temp = 27 C
    tnom = 27 C
    tempeffects = all
    gmindc = 1 pS
    dcs-000_dcs: dc = 12 mV          (4 %), step = 6 mV            (2 %)
    dcs-000_dcs: dc = 18 mV          (6 %), step = 6 mV            (2 %)
    dcs-000_dcs: dc = 24 mV          (8 %), step = 6 mV            (2 %)
    dcs-000_dcs: dc = 30 mV         (10 %), step = 6 mV            (2 %)
    dcs-000_dcs: dc = 36 mV         (12 %), step = 6 mV            (2 %)
    dcs-000_dcs: dc = 42 mV         (14 %), step = 6 mV            (2 %)
    dcs-000_dcs: dc = 48 mV         (16 %), step = 6 mV            (2 %)
    dcs-000_dcs: dc = 54 mV         (18 %), step = 6 mV            (2 %)
    dcs-000_dcs: dc = 60 mV         (20 %), step = 6 mV            (2 %)
    dcs-000_dcs: dc = 66 mV         (22 %), step = 6 mV            (2 %)
    dcs-000_dcs: dc = 72 mV         (24 %), step = 6 mV            (2 %)
    dcs-000_dcs: dc = 78 mV         (26 %), step = 6 mV            (2 %)
    dcs-000_dcs: dc = 84 mV         (28 %), step = 6 mV            (2 %)
    dcs-000_dcs: dc = 90 mV         (30 %), step = 6 mV            (2 %)
    dcs-000_dcs: dc = 96 mV         (32 %), step = 6 mV            (2 %)
    dcs-000_dcs: dc = 102 mV        (34 %), step = 6 mV            (2 %)
    dcs-000_dcs: dc = 108 mV        (36 %), step = 6 mV            (2 %)
    dcs-000_dcs: dc = 114 mV        (38 %), step = 6 mV            (2 %)
    dcs-000_dcs: dc = 120 mV        (40 %), step = 6 mV            (2 %)
    dcs-000_dcs: dc = 126 mV        (42 %), step = 6 mV            (2 %)
    dcs-000_dcs: dc = 132 mV        (44 %), step = 6 mV            (2 %)
    dcs-000_dcs: dc = 138 mV        (46 %), step = 6 mV            (2 %)
    dcs-000_dcs: dc = 144 mV        (48 %), step = 6 mV            (2 %)
    dcs-000_dcs: dc = 150 mV        (50 %), step = 6 mV            (2 %)
    dcs-000_dcs: dc = 156 mV        (52 %), step = 6 mV            (2 %)
    dcs-000_dcs: dc = 162 mV        (54 %), step = 6 mV            (2 %)
    dcs-000_dcs: dc = 168 mV        (56 %), step = 6 mV            (2 %)
    dcs-000_dcs: dc = 174 mV        (58 %), step = 6 mV            (2 %)
    dcs-000_dcs: dc = 180 mV        (60 %), step = 6 mV            (2 %)
    dcs-000_dcs: dc = 186 mV        (62 %), step = 6 mV            (2 %)
    dcs-000_dcs: dc = 192 mV        (64 %), step = 6 mV            (2 %)
    dcs-000_dcs: dc = 198 mV        (66 %), step = 6 mV            (2 %)
    dcs-000_dcs: dc = 204 mV        (68 %), step = 6 mV            (2 %)
    dcs-000_dcs: dc = 210 mV        (70 %), step = 6 mV            (2 %)
    dcs-000_dcs: dc = 216 mV        (72 %), step = 6 mV            (2 %)
    dcs-000_dcs: dc = 222 mV        (74 %), step = 6 mV            (2 %)
    dcs-000_dcs: dc = 228 mV        (76 %), step = 6 mV            (2 %)
    dcs-000_dcs: dc = 234 mV        (78 %), step = 6 mV            (2 %)
    dcs-000_dcs: dc = 240 mV        (80 %), step = 6 mV            (2 %)
    dcs-000_dcs: dc = 246 mV        (82 %), step = 6 mV            (2 %)
    dcs-000_dcs: dc = 252 mV        (84 %), step = 6 mV            (2 %)
    dcs-000_dcs: dc = 258 mV        (86 %), step = 6 mV            (2 %)
    dcs-000_dcs: dc = 264 mV        (88 %), step = 6 mV            (2 %)
    dcs-000_dcs: dc = 270 mV        (90 %), step = 6 mV            (2 %)
    dcs-000_dcs: dc = 276 mV        (92 %), step = 6 mV            (2 %)
    dcs-000_dcs: dc = 282 mV        (94 %), step = 6 mV            (2 %)
    dcs-000_dcs: dc = 288 mV        (96 %), step = 6 mV            (2 %)
    dcs-000_dcs: dc = 294 mV        (98 %), step = 6 mV            (2 %)
    dcs-000_dcs: dc = 300 mV       (100 %), step = 6 mV            (2 %)

Maximum value achieved for any signal of each quantity: 
V: V(net06) = 300 mV
I: I(V0:p) = 7.135 nA
DC simulation time: CPU = 13.998 ms, elapsed = 44.996 ms.

Notice from spectre at dc = 300 mV during DC analysis `dcs-000_dcs', during task `MDLControl'.
    The value of parameter 'dc' has been reset to the original value 0.

Total time required for dc analysis `dcs-000_dcs': CPU = 13.998 ms, elapsed = 45.037 ms.
Time accumulated: CPU = 10.9773 s, elapsed = 16.1148 s.
Peak resident memory used = 229 Mbytes.


Aggregate audit (12:31:39 PM, Mon Dec 13, 2021):
Time used: CPU = 11.1 s, elapsed = 16.3 s, util. = 68.1%.
Time spent in licensing: elapsed = 208 ms.
Peak memory used = 229 Mbytes.
Simulation started at: 12:31:22 PM, Mon Dec 13, 2021, ended at: 12:31:39 PM, Mon Dec 13, 2021, with elapsed time (wall clock): 16.3 s.
spectre completes with 0 errors, 133 warnings, and 497 notices.
