
Spectre (R) Circuit Simulator
Version 19.1.0.396.isr8 64bit -- 19 Jun 2020
Copyright (C) 1989-2020 Cadence Design Systems, Inc. All rights reserved worldwide. Cadence and Spectre are registered trademarks of Cadence Design Systems, Inc. All others are the property of their respective holders.

Includes RSA BSAFE(R) Cryptographic or Security Protocol Software from RSA Security, Inc.

User: VLSI_ANALOG   Host: cad19   HostID: 7F0100   PID: 15134
Memory  available: 210.0101 MB  physical: 3.9726 GB
Linux   : Red Hat Enterprise Linux Server release 6.9 (Santiago)
CPU Type: Intel(R) Core(TM) i5-2320 CPU @ 3.00GHz
        Socket: Processors [Frequency]
        0:       0 [3001.0],  1 [1800.0],  2 [1600.0],  3 [1600.0]
        
System load averages (1min, 5min, 15min) : 17.2 %, 14.5 %, 9.8 %


Simulating `./input.scs' on cad19 at 3:19:21 PM, Mon Dec 27, 2021 (process id: 15134).
Current working directory: /home/VLSI_ANALOG/UMC40/Optimisation/DFFM1
Command line:
    /home/installs/SPECTRE191/tools.lnx86/bin/spectre -64 =mdl  \
        input.mdl ./input.scs

Loading /home/installs/SPECTRE191/tools.lnx86/cmi/lib/64bit/5.0/libinfineon_sh.so ...
Loading /home/installs/SPECTRE191/tools.lnx86/cmi/lib/64bit/5.0/libphilips_o_sh.so ...
Loading /home/installs/SPECTRE191/tools.lnx86/cmi/lib/64bit/5.0/libphilips_sh.so ...
Loading /home/installs/SPECTRE191/tools.lnx86/cmi/lib/64bit/5.0/libsparam_sh.so ...
Loading /home/installs/SPECTRE191/tools.lnx86/cmi/lib/64bit/5.0/libstmodels_sh.so ...
Loading /home/installs/SPECTRE191/tools.lnx86/spectre/lib/64bit/mdl/libSpectreEH_sh.so ...
Reading file:  /home/VLSI_ANALOG/UMC40/Optimisation/DFFM1/input.mdl
Reading file:  /home/VLSI_ANALOG/UMC40/Optimisation/DFFM1/input.scs
Reading file:  /home/installs/SPECTRE191/tools.lnx86/spectre/etc/configs/spectre.cfg
Reading file:  /home/VLSI_ANALOG/UMC40/FDK_LP/Models/Spectre/l40lp_rf_v152_e.lib.scs
Reading file:  /home/VLSI_ANALOG/UMC40/FDK_LP/Models/Spectre/l40lp_mm_v1101_e.lib.scs
Time for NDB Parsing: CPU = 1.36479 s, elapsed = 1.67943 s.
Time accumulated: CPU = 1.51677 s, elapsed = 1.67944 s.
Peak resident memory used = 114 Mbytes.

Time for Elaboration: CPU = 46.994 ms, elapsed = 46.9251 ms.
Time accumulated: CPU = 1.56376 s, elapsed = 1.72652 s.
Peak resident memory used = 124 Mbytes.


Warning from spectre during hierarchy flattening.
    WARNING (SPECTRE-17101): The value 'psf' specified for the 'checklimitdest' option will no longer be supported in future releases. Use 'spectre -h' to see other recommended values for the 'checklimitdest' option.


Time for EDB Visiting: CPU = 3 ms, elapsed = 3.15094 ms.
Time accumulated: CPU = 1.56776 s, elapsed = 1.73052 s.
Peak resident memory used = 125 Mbytes.


Global user options:
         psfversion = 1.4.0
            vabstol = 1e-06
            iabstol = 1e-12
               temp = 27
               gmin = 1e-12
             rforce = 1
           maxnotes = 5
           maxwarns = 5
             digits = 5
               cols = 80
             pivrel = 0.001
           sensfile = ../psf/sens.output
     checklimitdest = psf
               save = allpub
             reltol = 0.001
               tnom = 27
             scalem = 1
              scale = 1

Scoped user options:

Circuit inventory:
              nodes 18
              bsim4 28    
          capacitor 1     
            vsource 3     

Analysis and control statement inventory:
               info 7     
               tran 1     

Output statements:
             .probe 0     
           .measure 0     
               save 0     

Time for parsing: CPU = 2.999 ms, elapsed = 142.048 ms.
Time accumulated: CPU = 1.57176 s, elapsed = 1.87284 s.
Peak resident memory used = 127 Mbytes.

~~~~~~~~~~~~~~~~~~~~~~
Pre-Simulation Summary
~~~~~~~~~~~~~~~~~~~~~~
~~~~~~~~~~~~~~~~~~~~~~

************************************************
Transient Analysis `trans': time = (0 s -> 1 us)
************************************************
DC simulation time: CPU = 5 ms, elapsed = 6.41394 ms.

Opening the PSFXL file ./input.raw/trans.tran.tran ...
Important parameter values:
    start = 0 s
    outputstart = 0 s
    stop = 1 us
    step = 1 ns
    maxstep = 20 ns
    ic = all
    useprevic = no
    skipdc = no
    reltol = 1e-03
    abstol(V) = 1 uV
    abstol(I) = 1 pA
    temp = 27 C
    tnom = 27 C
    tempeffects = all
    errpreset = moderate
    method = traponly
    lteratio = 3.5
    relref = sigglobal
    cmin = 0 F
    gmin = 1 pS


Output and IC/nodeset summary:
                 save   1       (current)
                 save   18      (voltage)

......9

Notice from spectre at time = 100.002 ns during transient analysis `trans', during task `MDLControl'.
    Found trapezoidal ringing on node I12.NM14:int_s.
Notice from spectre at time = 100.003 ns during transient analysis `trans', during task `MDLControl'.
    Found trapezoidal ringing on node I12.NM14:int_s.
Notice from spectre at time = 100.004 ns during transient analysis `trans', during task `MDLControl'.
    Found trapezoidal ringing on node I12.NM14:int_s.
Notice from spectre at time = 100.005 ns during transient analysis `trans', during task `MDLControl'.
    Found trapezoidal ringing on node I12.NM14:int_s.
Notice from spectre at time = 100.008 ns during transient analysis `trans', during task `MDLControl'.
    Found trapezoidal ringing on node I12.NM14:int_s.
        Further occurrences of this notice will be suppressed.

......9......8......7......6......5......4......3......2......1......0
Number of accepted tran steps =             451

Notice from spectre during transient analysis `trans', during task `MDLControl'.
    Trapezoidal ringing is detected during tran analysis.
        Please use method=trap for better results and performance.


Maximum value achieved for any signal of each quantity: 
V: V(I12.PM15:int_s) = 367.5 mV
I: I(V0:p) = 518.1 uA
If your circuit contains signals of the same quantity that are vastly different in size (such as high voltage circuitry combined with low voltage control circuitry), you should consider specifying global option `bin_relref=yes'.

~~~~~~~~~~~~~~~~~~~~~~~~~~~~~~~~~
Post-Transient Simulation Summary
~~~~~~~~~~~~~~~~~~~~~~~~~~~~~~~~~
   -   To further speed up simulation, consider
          add ++aps on command line
~~~~~~~~~~~~~~~~~~~~~~~~~~~~~~~~~


During simulation, the CPU load for active processors is :
         0 (29.8 %)      1 (19.6 %)      2 (46.0 %)      3 (33.2 %)
        Total: 128.5%
Initial condition solution time: CPU = 5 ms, elapsed = 6.52599 ms.
Intrinsic tran analysis time:    CPU = 178.973 ms, elapsed = 223.443 ms.
Total time required for tran analysis `trans': CPU = 190.972 ms, elapsed = 235.429 ms.
Time accumulated: CPU = 1.76873 s, elapsed = 2.1152 s.
Peak resident memory used = 130 Mbytes.


Notice from spectre during task `MDLControl'.
    76 notices suppressed.
Warning from spectre.
    WARNING (SPECTRE-17101): The value 'psf' specified for the 'checklimitdest' option will no longer be supported in future releases. Use 'spectre -h' to see other recommended values for the 'checklimitdest' option.
    WARNING (SPECTRE-17101): The value 'psf' specified for the 'checklimitdest' option will no longer be supported in future releases. Use 'spectre -h' to see other recommended values for the 'checklimitdest' option.


Opening the PSF file ./input.raw/trans.optimize ...

**********************************************************
Transient Analysis `trans-000_trans': time = (0 s -> 1 us)
**********************************************************
DC simulation time: CPU = 5.999 ms, elapsed = 5.26595 ms.

Opening the PSFXL file ./input.raw/trans-000_trans.tran.tran ...
Important parameter values:
    start = 0 s
    outputstart = 0 s
    stop = 1 us
    step = 1 ns
    maxstep = 20 ns
    ic = all
    useprevic = no
    skipdc = no
    reltol = 1e-03
    abstol(V) = 1 uV
    abstol(I) = 1 pA
    temp = 27 C
    tnom = 27 C
    tempeffects = all
    errpreset = moderate
    method = traponly
    lteratio = 3.5
    relref = sigglobal
    cmin = 0 F
    gmin = 1 pS


Output and IC/nodeset summary:
                 save   1       (current)
                 save   18      (voltage)

......9

Notice from spectre at time = 100.002 ns during transient analysis `trans-000_trans', during task `MDLControl'.
    Found trapezoidal ringing on node I12.NM14:int_s.
Notice from spectre at time = 100.003 ns during transient analysis `trans-000_trans', during task `MDLControl'.
    Found trapezoidal ringing on node I12.NM14:int_s.
Notice from spectre at time = 100.004 ns during transient analysis `trans-000_trans', during task `MDLControl'.
    Found trapezoidal ringing on node I12.NM14:int_s.
Notice from spectre at time = 100.005 ns during transient analysis `trans-000_trans', during task `MDLControl'.
    Found trapezoidal ringing on node I12.NM14:int_s.
Notice from spectre at time = 100.008 ns during transient analysis `trans-000_trans', during task `MDLControl'.
    Found trapezoidal ringing on node I12.NM14:int_s.
        Further occurrences of this notice will be suppressed.

......9......8......7......6......5......4......3......2......1......0
Number of accepted tran steps =             481

Notice from spectre during transient analysis `trans-000_trans', during task `MDLControl'.
    Trapezoidal ringing is detected during tran analysis.
        Please use method=trap for better results and performance.


Maximum value achieved for any signal of each quantity: 
V: V(I12.PM26:int_d) = 368.3 mV
I: I(V0:p) = 345.6 uA
If your circuit contains signals of the same quantity that are vastly different in size (such as high voltage circuitry combined with low voltage control circuitry), you should consider specifying global option `bin_relref=yes'.

~~~~~~~~~~~~~~~~~~~~~~~~~~~~~~~~~
Post-Transient Simulation Summary
~~~~~~~~~~~~~~~~~~~~~~~~~~~~~~~~~
   -   To further speed up simulation, consider
          add ++aps on command line
~~~~~~~~~~~~~~~~~~~~~~~~~~~~~~~~~


During simulation, the CPU load for active processors is :
         0 (37.0 %)      1 (19.2 %)      2 (41.4 %)      3 (29.7 %)
        Total: 127.2%
Initial condition solution time: CPU = 5.999 ms, elapsed = 5.36299 ms.
Intrinsic tran analysis time:    CPU = 203.968 ms, elapsed = 241.177 ms.
Total time required for tran analysis `trans-000_trans': CPU = 213.967 ms, elapsed = 251.185 ms.
Time accumulated: CPU = 2.03169 s, elapsed = 2.51178 s.
Peak resident memory used = 131 Mbytes.


Notice from spectre during task `MDLControl'.
    79 notices suppressed.
Warning from spectre.
    WARNING (SPECTRE-17101): The value 'psf' specified for the 'checklimitdest' option will no longer be supported in future releases. Use 'spectre -h' to see other recommended values for the 'checklimitdest' option.


**********************************************************
Transient Analysis `trans-000_trans': time = (0 s -> 1 us)
**********************************************************
DC simulation time: CPU = 2 ms, elapsed = 2.52414 ms.

Opening the PSFXL file ./input.raw/trans-000_trans.tran.tran ...
Important parameter values:
    start = 0 s
    outputstart = 0 s
    stop = 1 us
    step = 1 ns
    maxstep = 20 ns
    ic = all
    useprevic = no
    skipdc = no
    reltol = 1e-03
    abstol(V) = 1 uV
    abstol(I) = 1 pA
    temp = 27 C
    tnom = 27 C
    tempeffects = all
    errpreset = moderate
    method = traponly
    lteratio = 3.5
    relref = sigglobal
    cmin = 0 F
    gmin = 1 pS


Output and IC/nodeset summary:
                 save   1       (current)
                 save   18      (voltage)

......9

Notice from spectre at time = 100.002 ns during transient analysis `trans-000_trans', during task `MDLControl'.
    Found trapezoidal ringing on node I12.NM14:int_s.
Notice from spectre at time = 100.003 ns during transient analysis `trans-000_trans', during task `MDLControl'.
    Found trapezoidal ringing on node I12.NM14:int_s.
Notice from spectre at time = 100.004 ns during transient analysis `trans-000_trans', during task `MDLControl'.
    Found trapezoidal ringing on node I12.NM14:int_s.
Notice from spectre at time = 100.005 ns during transient analysis `trans-000_trans', during task `MDLControl'.
    Found trapezoidal ringing on node I12.NM14:int_s.
Notice from spectre at time = 100.008 ns during transient analysis `trans-000_trans', during task `MDLControl'.
    Found trapezoidal ringing on node I12.NM14:int_s.
        Further occurrences of this notice will be suppressed.

......9......8......7......6......5......4......3......2......1......0
Number of accepted tran steps =             481

Notice from spectre during transient analysis `trans-000_trans', during task `MDLControl'.
    Trapezoidal ringing is detected during tran analysis.
        Please use method=trap for better results and performance.


Maximum value achieved for any signal of each quantity: 
V: V(I12.PM26:int_d) = 368.3 mV
I: I(V0:p) = 345.6 uA
If your circuit contains signals of the same quantity that are vastly different in size (such as high voltage circuitry combined with low voltage control circuitry), you should consider specifying global option `bin_relref=yes'.

~~~~~~~~~~~~~~~~~~~~~~~~~~~~~~~~~
Post-Transient Simulation Summary
~~~~~~~~~~~~~~~~~~~~~~~~~~~~~~~~~
   -   To further speed up simulation, consider
          add ++aps on command line
~~~~~~~~~~~~~~~~~~~~~~~~~~~~~~~~~


During simulation, the CPU load for active processors is :
         0 (36.5 %)      1 (25.3 %)      2 (38.4 %)      3 (27.7 %)
        Total: 127.8%
Initial condition solution time: CPU = 2 ms, elapsed = 2.57206 ms.
Intrinsic tran analysis time:    CPU = 195.971 ms, elapsed = 226.395 ms.
Total time required for tran analysis `trans-000_trans': CPU = 199.97 ms, elapsed = 231.566 ms.
Time accumulated: CPU = 2.25266 s, elapsed = 2.76495 s.
Peak resident memory used = 131 Mbytes.


Notice from spectre during task `MDLControl'.
    79 notices suppressed.
Warning from spectre.
    WARNING (SPECTRE-17101): The value 'psf' specified for the 'checklimitdest' option will no longer be supported in future releases. Use 'spectre -h' to see other recommended values for the 'checklimitdest' option.
    WARNING (SPECTRE-17101): The value 'psf' specified for the 'checklimitdest' option will no longer be supported in future releases. Use 'spectre -h' to see other recommended values for the 'checklimitdest' option.


**********************************************************
Transient Analysis `trans-000_trans': time = (0 s -> 1 us)
**********************************************************
DC simulation time: CPU = 1.999 ms, elapsed = 2.4848 ms.

Opening the PSFXL file ./input.raw/trans-000_trans.tran.tran ...
Important parameter values:
    start = 0 s
    outputstart = 0 s
    stop = 1 us
    step = 1 ns
    maxstep = 20 ns
    ic = all
    useprevic = no
    skipdc = no
    reltol = 1e-03
    abstol(V) = 1 uV
    abstol(I) = 1 pA
    temp = 27 C
    tnom = 27 C
    tempeffects = all
    errpreset = moderate
    method = traponly
    lteratio = 3.5
    relref = sigglobal
    cmin = 0 F
    gmin = 1 pS


Output and IC/nodeset summary:
                 save   1       (current)
                 save   18      (voltage)

......9

Notice from spectre at time = 100.002 ns during transient analysis `trans-000_trans', during task `MDLControl'.
    Found trapezoidal ringing on node I12.NM14:int_s.
Notice from spectre at time = 100.003 ns during transient analysis `trans-000_trans', during task `MDLControl'.
    Found trapezoidal ringing on node I12.NM14:int_s.
Notice from spectre at time = 100.004 ns during transient analysis `trans-000_trans', during task `MDLControl'.
    Found trapezoidal ringing on node I12.NM14:int_s.
Notice from spectre at time = 100.005 ns during transient analysis `trans-000_trans', during task `MDLControl'.
    Found trapezoidal ringing on node I12.NM14:int_s.
Notice from spectre at time = 100.008 ns during transient analysis `trans-000_trans', during task `MDLControl'.
    Found trapezoidal ringing on node I12.NM14:int_s.
        Further occurrences of this notice will be suppressed.

......9......8......7......6......5......4......3......2......1......0
Number of accepted tran steps =             481

Notice from spectre during transient analysis `trans-000_trans', during task `MDLControl'.
    Trapezoidal ringing is detected during tran analysis.
        Please use method=trap for better results and performance.


Maximum value achieved for any signal of each quantity: 
V: V(I12.PM26:int_d) = 368.3 mV
I: I(V0:p) = 345.6 uA
If your circuit contains signals of the same quantity that are vastly different in size (such as high voltage circuitry combined with low voltage control circuitry), you should consider specifying global option `bin_relref=yes'.

~~~~~~~~~~~~~~~~~~~~~~~~~~~~~~~~~
Post-Transient Simulation Summary
~~~~~~~~~~~~~~~~~~~~~~~~~~~~~~~~~
   -   To further speed up simulation, consider
          add ++aps on command line
~~~~~~~~~~~~~~~~~~~~~~~~~~~~~~~~~


During simulation, the CPU load for active processors is :
         0 (35.3 %)      1 (31.4 %)      2 (35.7 %)      3 (25.3 %)
        Total: 127.8%
Initial condition solution time: CPU = 1.999 ms, elapsed = 2.5301 ms.
Intrinsic tran analysis time:    CPU = 195.97 ms, elapsed = 232.223 ms.
Total time required for tran analysis `trans-000_trans': CPU = 200.969 ms, elapsed = 237.257 ms.
Time accumulated: CPU = 2.49162 s, elapsed = 3.04072 s.
Peak resident memory used = 131 Mbytes.


Notice from spectre during task `MDLControl'.
    79 notices suppressed.
Warning from spectre.
    WARNING (SPECTRE-17101): The value 'psf' specified for the 'checklimitdest' option will no longer be supported in future releases. Use 'spectre -h' to see other recommended values for the 'checklimitdest' option.
    WARNING (SPECTRE-17101): The value 'psf' specified for the 'checklimitdest' option will no longer be supported in future releases. Use 'spectre -h' to see other recommended values for the 'checklimitdest' option.


**********************************************************
Transient Analysis `trans-000_trans': time = (0 s -> 1 us)
**********************************************************
DC simulation time: CPU = 2.999 ms, elapsed = 2.491 ms.

Opening the PSFXL file ./input.raw/trans-000_trans.tran.tran ...
Important parameter values:
    start = 0 s
    outputstart = 0 s
    stop = 1 us
    step = 1 ns
    maxstep = 20 ns
    ic = all
    useprevic = no
    skipdc = no
    reltol = 1e-03
    abstol(V) = 1 uV
    abstol(I) = 1 pA
    temp = 27 C
    tnom = 27 C
    tempeffects = all
    errpreset = moderate
    method = traponly
    lteratio = 3.5
    relref = sigglobal
    cmin = 0 F
    gmin = 1 pS


Output and IC/nodeset summary:
                 save   1       (current)
                 save   18      (voltage)

......9

Notice from spectre at time = 100.002 ns during transient analysis `trans-000_trans', during task `MDLControl'.
    Found trapezoidal ringing on node I12.NM14:int_s.
Notice from spectre at time = 100.003 ns during transient analysis `trans-000_trans', during task `MDLControl'.
    Found trapezoidal ringing on node I12.NM14:int_s.
Notice from spectre at time = 100.004 ns during transient analysis `trans-000_trans', during task `MDLControl'.
    Found trapezoidal ringing on node I12.NM14:int_s.
Notice from spectre at time = 100.005 ns during transient analysis `trans-000_trans', during task `MDLControl'.
    Found trapezoidal ringing on node I12.NM14:int_s.
Notice from spectre at time = 100.008 ns during transient analysis `trans-000_trans', during task `MDLControl'.
    Found trapezoidal ringing on node I12.NM14:int_s.
        Further occurrences of this notice will be suppressed.

......9......8......7......6......5......4......3......2......1......0
Number of accepted tran steps =             481

Notice from spectre during transient analysis `trans-000_trans', during task `MDLControl'.
    Trapezoidal ringing is detected during tran analysis.
        Please use method=trap for better results and performance.


Maximum value achieved for any signal of each quantity: 
V: V(I12.PM26:int_d) = 368.3 mV
I: I(V0:p) = 345.6 uA
If your circuit contains signals of the same quantity that are vastly different in size (such as high voltage circuitry combined with low voltage control circuitry), you should consider specifying global option `bin_relref=yes'.

~~~~~~~~~~~~~~~~~~~~~~~~~~~~~~~~~
Post-Transient Simulation Summary
~~~~~~~~~~~~~~~~~~~~~~~~~~~~~~~~~
   -   To further speed up simulation, consider
          add ++aps on command line
~~~~~~~~~~~~~~~~~~~~~~~~~~~~~~~~~


During simulation, the CPU load for active processors is :
         0 (34.9 %)      1 (36.4 %)      2 (33.3 %)      3 (23.8 %)
        Total: 128.4%
Initial condition solution time: CPU = 2.999 ms, elapsed = 2.53487 ms.
Intrinsic tran analysis time:    CPU = 201.969 ms, elapsed = 241.96 ms.
Total time required for tran analysis `trans-000_trans': CPU = 206.968 ms, elapsed = 246.984 ms.
Time accumulated: CPU = 2.73558 s, elapsed = 3.32483 s.
Peak resident memory used = 131 Mbytes.


Notice from spectre during task `MDLControl'.
    79 notices suppressed.
Warning from spectre.
    WARNING (SPECTRE-17101): The value 'psf' specified for the 'checklimitdest' option will no longer be supported in future releases. Use 'spectre -h' to see other recommended values for the 'checklimitdest' option.
    WARNING (SPECTRE-17101): The value 'psf' specified for the 'checklimitdest' option will no longer be supported in future releases. Use 'spectre -h' to see other recommended values for the 'checklimitdest' option.


**********************************************************
Transient Analysis `trans-000_trans': time = (0 s -> 1 us)
**********************************************************
DC simulation time: CPU = 2.999 ms, elapsed = 2.67196 ms.

Opening the PSFXL file ./input.raw/trans-000_trans.tran.tran ...
Important parameter values:
    start = 0 s
    outputstart = 0 s
    stop = 1 us
    step = 1 ns
    maxstep = 20 ns
    ic = all
    useprevic = no
    skipdc = no
    reltol = 1e-03
    abstol(V) = 1 uV
    abstol(I) = 1 pA
    temp = 27 C
    tnom = 27 C
    tempeffects = all
    errpreset = moderate
    method = traponly
    lteratio = 3.5
    relref = sigglobal
    cmin = 0 F
    gmin = 1 pS


Output and IC/nodeset summary:
                 save   1       (current)
                 save   18      (voltage)

......9

Notice from spectre at time = 100.002 ns during transient analysis `trans-000_trans', during task `MDLControl'.
    Found trapezoidal ringing on node I12.NM14:int_s.
Notice from spectre at time = 100.003 ns during transient analysis `trans-000_trans', during task `MDLControl'.
    Found trapezoidal ringing on node I12.NM14:int_s.
Notice from spectre at time = 100.004 ns during transient analysis `trans-000_trans', during task `MDLControl'.
    Found trapezoidal ringing on node I12.NM14:int_s.
Notice from spectre at time = 100.005 ns during transient analysis `trans-000_trans', during task `MDLControl'.
    Found trapezoidal ringing on node I12.NM14:int_s.
Notice from spectre at time = 100.008 ns during transient analysis `trans-000_trans', during task `MDLControl'.
    Found trapezoidal ringing on node I12.NM14:int_s.
        Further occurrences of this notice will be suppressed.

......9......8......7......6......5......4......3......2......1......0
Number of accepted tran steps =             481

Notice from spectre during transient analysis `trans-000_trans', during task `MDLControl'.
    Trapezoidal ringing is detected during tran analysis.
        Please use method=trap for better results and performance.


Maximum value achieved for any signal of each quantity: 
V: V(I12.PM26:int_d) = 368.3 mV
I: I(V0:p) = 345.6 uA
If your circuit contains signals of the same quantity that are vastly different in size (such as high voltage circuitry combined with low voltage control circuitry), you should consider specifying global option `bin_relref=yes'.

~~~~~~~~~~~~~~~~~~~~~~~~~~~~~~~~~
Post-Transient Simulation Summary
~~~~~~~~~~~~~~~~~~~~~~~~~~~~~~~~~
   -   To further speed up simulation, consider
          add ++aps on command line
~~~~~~~~~~~~~~~~~~~~~~~~~~~~~~~~~


During simulation, the CPU load for active processors is :
         0 (33.6 %)      1 (35.3 %)      2 (36.7 %)      3 (22.5 %)
        Total: 128.2%
Initial condition solution time: CPU = 2.999 ms, elapsed = 2.71916 ms.
Intrinsic tran analysis time:    CPU = 195.971 ms, elapsed = 232.652 ms.
Total time required for tran analysis `trans-000_trans': CPU = 201.969 ms, elapsed = 237.897 ms.
Time accumulated: CPU = 2.97455 s, elapsed = 3.60074 s.
Peak resident memory used = 131 Mbytes.


Notice from spectre during task `MDLControl'.
    79 notices suppressed.
Warning from spectre.
    WARNING (SPECTRE-17101): The value 'psf' specified for the 'checklimitdest' option will no longer be supported in future releases. Use 'spectre -h' to see other recommended values for the 'checklimitdest' option.
    WARNING (SPECTRE-17101): The value 'psf' specified for the 'checklimitdest' option will no longer be supported in future releases. Use 'spectre -h' to see other recommended values for the 'checklimitdest' option.
    WARNING (SPECTRE-17101): The value 'psf' specified for the 'checklimitdest' option will no longer be supported in future releases. Use 'spectre -h' to see other recommended values for the 'checklimitdest' option.


**********************************************************
Transient Analysis `trans-000_trans': time = (0 s -> 1 us)
**********************************************************

Notice from spectre during IC analysis, during transient analysis `trans-000_trans', during task `MDLControl'.
    GminDC = 1 pS is large enough to noticeably affect the DC solution.
        dV(I12.PM20:int_d) = 325.765 uV
        Use the `gmin_check' option to eliminate or expand this report.

DC simulation time: CPU = 2 ms, elapsed = 1.80101 ms.

Opening the PSFXL file ./input.raw/trans-000_trans.tran.tran ...
Important parameter values:
    start = 0 s
    outputstart = 0 s
    stop = 1 us
    step = 1 ns
    maxstep = 20 ns
    ic = all
    useprevic = no
    skipdc = no
    reltol = 1e-03
    abstol(V) = 1 uV
    abstol(I) = 1 pA
    temp = 27 C
    tnom = 27 C
    tempeffects = all
    errpreset = moderate
    method = traponly
    lteratio = 3.5
    relref = sigglobal
    cmin = 0 F
    gmin = 1 pS


Output and IC/nodeset summary:
                 save   1       (current)
                 save   18      (voltage)

......9

Notice from spectre at time = 100.002 ns during transient analysis `trans-000_trans', during task `MDLControl'.
    Found trapezoidal ringing on node I12.NM14:int_s.
Notice from spectre at time = 100.003 ns during transient analysis `trans-000_trans', during task `MDLControl'.
    Found trapezoidal ringing on node I12.NM14:int_s.
Notice from spectre at time = 100.004 ns during transient analysis `trans-000_trans', during task `MDLControl'.
    Found trapezoidal ringing on node I12.NM14:int_s.
Notice from spectre at time = 100.006 ns during transient analysis `trans-000_trans', during task `MDLControl'.
    Found trapezoidal ringing on node I12.NM14:int_s.
Notice from spectre at time = 100.009 ns during transient analysis `trans-000_trans', during task `MDLControl'.
    Found trapezoidal ringing on node I12.NM14:int_s.
        Further occurrences of this notice will be suppressed.

......9......8......7......6......5......4......3......2......1......0
Number of accepted tran steps =             469

Notice from spectre during transient analysis `trans-000_trans', during task `MDLControl'.
    Trapezoidal ringing is detected during tran analysis.
        Please use method=trap for better results and performance.


Maximum value achieved for any signal of each quantity: 
V: V(I12.PM15:int_s) = 360.8 mV
I: I(V0:p) = 42.73 uA
If your circuit contains signals of the same quantity that are vastly different in size (such as high voltage circuitry combined with low voltage control circuitry), you should consider specifying global option `bin_relref=yes'.

~~~~~~~~~~~~~~~~~~~~~~~~~~~~~~~~~
Post-Transient Simulation Summary
~~~~~~~~~~~~~~~~~~~~~~~~~~~~~~~~~
   -   To further speed up simulation, consider
          add ++aps on command line
~~~~~~~~~~~~~~~~~~~~~~~~~~~~~~~~~


During simulation, the CPU load for active processors is :
         0 (37.7 %)      1 (33.4 %)      2 (35.7 %)      3 (21.0 %)
        Total: 127.8%
Initial condition solution time: CPU = 2 ms, elapsed = 1.84107 ms.
Intrinsic tran analysis time:    CPU = 192.971 ms, elapsed = 227.98 ms.
Total time required for tran analysis `trans-000_trans': CPU = 197.97 ms, elapsed = 232.486 ms.
Time accumulated: CPU = 3.22851 s, elapsed = 3.88932 s.
Peak resident memory used = 131 Mbytes.


Notice from spectre during task `MDLControl'.
    78 notices suppressed.
Warning from spectre.
    WARNING (SPECTRE-17101): The value 'psf' specified for the 'checklimitdest' option will no longer be supported in future releases. Use 'spectre -h' to see other recommended values for the 'checklimitdest' option.
    WARNING (SPECTRE-17101): The value 'psf' specified for the 'checklimitdest' option will no longer be supported in future releases. Use 'spectre -h' to see other recommended values for the 'checklimitdest' option.
    WARNING (SPECTRE-17101): The value 'psf' specified for the 'checklimitdest' option will no longer be supported in future releases. Use 'spectre -h' to see other recommended values for the 'checklimitdest' option.
    WARNING (SPECTRE-17101): The value 'psf' specified for the 'checklimitdest' option will no longer be supported in future releases. Use 'spectre -h' to see other recommended values for the 'checklimitdest' option.


**********************************************************
Transient Analysis `trans-000_trans': time = (0 s -> 1 us)
**********************************************************

Notice from spectre during IC analysis, during transient analysis `trans-000_trans', during task `MDLControl'.
    GminDC = 1 pS is large enough to noticeably affect the DC solution.
        dV(I12.PM26:int_d) = 148.523 uV
        Use the `gmin_check' option to eliminate or expand this report.

DC simulation time: CPU = 2.999 ms, elapsed = 2.30098 ms.

Opening the PSFXL file ./input.raw/trans-000_trans.tran.tran ...
Important parameter values:
    start = 0 s
    outputstart = 0 s
    stop = 1 us
    step = 1 ns
    maxstep = 20 ns
    ic = all
    useprevic = no
    skipdc = no
    reltol = 1e-03
    abstol(V) = 1 uV
    abstol(I) = 1 pA
    temp = 27 C
    tnom = 27 C
    tempeffects = all
    errpreset = moderate
    method = traponly
    lteratio = 3.5
    relref = sigglobal
    cmin = 0 F
    gmin = 1 pS


Output and IC/nodeset summary:
                 save   1       (current)
                 save   18      (voltage)

......9......

Notice from spectre at time = 189.901 ns during transient analysis `trans-000_trans', during task `MDLControl'.
    Found trapezoidal ringing on node V0:p.
Notice from spectre at time = 200 ns during transient analysis `trans-000_trans', during task `MDLControl'.
    Found trapezoidal ringing on node V0:p.

......9......8

Notice from spectre at time = 200.002 ns during transient analysis `trans-000_trans', during task `MDLControl'.
    Found trapezoidal ringing on node I12.NM15:int_s.
Notice from spectre at time = 200.003 ns during transient analysis `trans-000_trans', during task `MDLControl'.
    Found trapezoidal ringing on node I12.NM15:int_s.
Notice from spectre at time = 200.004 ns during transient analysis `trans-000_trans', during task `MDLControl'.
    Found trapezoidal ringing on node I12.NM15:int_s.
        Further occurrences of this notice will be suppressed.

......9......8......7......6......5......4......3......2......1......0
Number of accepted tran steps =             470

Notice from spectre during transient analysis `trans-000_trans', during task `MDLControl'.
    Trapezoidal ringing is detected during tran analysis.
        Please use method=trap for better results and performance.


Maximum value achieved for any signal of each quantity: 
V: V(I12.PM26:int_d) = 368.8 mV
I: I(V0:p) = 289.6 uA
If your circuit contains signals of the same quantity that are vastly different in size (such as high voltage circuitry combined with low voltage control circuitry), you should consider specifying global option `bin_relref=yes'.

~~~~~~~~~~~~~~~~~~~~~~~~~~~~~~~~~
Post-Transient Simulation Summary
~~~~~~~~~~~~~~~~~~~~~~~~~~~~~~~~~
   -   To further speed up simulation, consider
          add ++aps on command line
~~~~~~~~~~~~~~~~~~~~~~~~~~~~~~~~~


During simulation, the CPU load for active processors is :
         0 (41.9 %)      1 (31.8 %)      2 (33.3 %)      3 (20.2 %)
        Total: 127.1%
Initial condition solution time: CPU = 2.999 ms, elapsed = 2.35081 ms.
Intrinsic tran analysis time:    CPU = 195.971 ms, elapsed = 232.029 ms.
Total time required for tran analysis `trans-000_trans': CPU = 200.969 ms, elapsed = 236.961 ms.
Time accumulated: CPU = 3.50347 s, elapsed = 4.20076 s.
Peak resident memory used = 131 Mbytes.


Notice from spectre during task `MDLControl'.
    74 notices suppressed.
Warning from spectre.
    WARNING (SPECTRE-17101): The value 'psf' specified for the 'checklimitdest' option will no longer be supported in future releases. Use 'spectre -h' to see other recommended values for the 'checklimitdest' option.


**********************************************************
Transient Analysis `trans-000_trans': time = (0 s -> 1 us)
**********************************************************

Notice from spectre during IC analysis, during transient analysis `trans-000_trans', during task `MDLControl'.
    GminDC = 1 pS is large enough to noticeably affect the DC solution.
        dV(I12.PM26:int_d) = 148.518 uV
        Use the `gmin_check' option to eliminate or expand this report.

DC simulation time: CPU = 1.999 ms, elapsed = 2.28 ms.

Opening the PSFXL file ./input.raw/trans-000_trans.tran.tran ...
Important parameter values:
    start = 0 s
    outputstart = 0 s
    stop = 1 us
    step = 1 ns
    maxstep = 20 ns
    ic = all
    useprevic = no
    skipdc = no
    reltol = 1e-03
    abstol(V) = 1 uV
    abstol(I) = 1 pA
    temp = 27 C
    tnom = 27 C
    tempeffects = all
    errpreset = moderate
    method = traponly
    lteratio = 3.5
    relref = sigglobal
    cmin = 0 F
    gmin = 1 pS


Output and IC/nodeset summary:
                 save   1       (current)
                 save   18      (voltage)

......9......

Notice from spectre at time = 189.9 ns during transient analysis `trans-000_trans', during task `MDLControl'.
    Found trapezoidal ringing on node V0:p.
Notice from spectre at time = 200 ns during transient analysis `trans-000_trans', during task `MDLControl'.
    Found trapezoidal ringing on node V0:p.

......9......8

Notice from spectre at time = 200.002 ns during transient analysis `trans-000_trans', during task `MDLControl'.
    Found trapezoidal ringing on node I12.NM15:int_s.
Notice from spectre at time = 200.003 ns during transient analysis `trans-000_trans', during task `MDLControl'.
    Found trapezoidal ringing on node I12.NM15:int_s.
Notice from spectre at time = 200.004 ns during transient analysis `trans-000_trans', during task `MDLControl'.
    Found trapezoidal ringing on node I12.NM15:int_s.
        Further occurrences of this notice will be suppressed.

......9......8......7......6......5......4......3......2......1......0
Number of accepted tran steps =             470

Notice from spectre during transient analysis `trans-000_trans', during task `MDLControl'.
    Trapezoidal ringing is detected during tran analysis.
        Please use method=trap for better results and performance.


Maximum value achieved for any signal of each quantity: 
V: V(I12.PM26:int_d) = 368.8 mV
I: I(V0:p) = 289.6 uA
If your circuit contains signals of the same quantity that are vastly different in size (such as high voltage circuitry combined with low voltage control circuitry), you should consider specifying global option `bin_relref=yes'.

~~~~~~~~~~~~~~~~~~~~~~~~~~~~~~~~~
Post-Transient Simulation Summary
~~~~~~~~~~~~~~~~~~~~~~~~~~~~~~~~~
   -   To further speed up simulation, consider
          add ++aps on command line
~~~~~~~~~~~~~~~~~~~~~~~~~~~~~~~~~


During simulation, the CPU load for active processors is :
         0 (44.4 %)      1 (31.0 %)      2 (31.9 %)      3 (20.8 %)
        Total: 128.2%
Initial condition solution time: CPU = 1.999 ms, elapsed = 2.32005 ms.
Intrinsic tran analysis time:    CPU = 195.97 ms, elapsed = 233.189 ms.
Total time required for tran analysis `trans-000_trans': CPU = 201.969 ms, elapsed = 238.146 ms.
Time accumulated: CPU = 3.72443 s, elapsed = 4.4594 s.
Peak resident memory used = 131 Mbytes.


Notice from spectre during task `MDLControl'.
    74 notices suppressed.
Warning from spectre.
    WARNING (SPECTRE-17101): The value 'psf' specified for the 'checklimitdest' option will no longer be supported in future releases. Use 'spectre -h' to see other recommended values for the 'checklimitdest' option.
    WARNING (SPECTRE-17101): The value 'psf' specified for the 'checklimitdest' option will no longer be supported in future releases. Use 'spectre -h' to see other recommended values for the 'checklimitdest' option.


**********************************************************
Transient Analysis `trans-000_trans': time = (0 s -> 1 us)
**********************************************************

Notice from spectre during IC analysis, during transient analysis `trans-000_trans', during task `MDLControl'.
    GminDC = 1 pS is large enough to noticeably affect the DC solution.
        dV(I12.PM26:int_d) = 148.523 uV
        Use the `gmin_check' option to eliminate or expand this report.

DC simulation time: CPU = 1.999 ms, elapsed = 2.2738 ms.

Opening the PSFXL file ./input.raw/trans-000_trans.tran.tran ...
Important parameter values:
    start = 0 s
    outputstart = 0 s
    stop = 1 us
    step = 1 ns
    maxstep = 20 ns
    ic = all
    useprevic = no
    skipdc = no
    reltol = 1e-03
    abstol(V) = 1 uV
    abstol(I) = 1 pA
    temp = 27 C
    tnom = 27 C
    tempeffects = all
    errpreset = moderate
    method = traponly
    lteratio = 3.5
    relref = sigglobal
    cmin = 0 F
    gmin = 1 pS


Output and IC/nodeset summary:
                 save   1       (current)
                 save   18      (voltage)

......9......

Notice from spectre at time = 189.901 ns during transient analysis `trans-000_trans', during task `MDLControl'.
    Found trapezoidal ringing on node V0:p.
Notice from spectre at time = 200 ns during transient analysis `trans-000_trans', during task `MDLControl'.
    Found trapezoidal ringing on node V0:p.

......9......8

Notice from spectre at time = 200.002 ns during transient analysis `trans-000_trans', during task `MDLControl'.
    Found trapezoidal ringing on node I12.NM15:int_s.
Notice from spectre at time = 200.003 ns during transient analysis `trans-000_trans', during task `MDLControl'.
    Found trapezoidal ringing on node I12.NM15:int_s.
Notice from spectre at time = 200.004 ns during transient analysis `trans-000_trans', during task `MDLControl'.
    Found trapezoidal ringing on node I12.NM15:int_s.
        Further occurrences of this notice will be suppressed.

......9......8......7......6......5......4......3......2......1......0
Number of accepted tran steps =             470

Notice from spectre during transient analysis `trans-000_trans', during task `MDLControl'.
    Trapezoidal ringing is detected during tran analysis.
        Please use method=trap for better results and performance.


Maximum value achieved for any signal of each quantity: 
V: V(I12.PM26:int_d) = 368.8 mV
I: I(V0:p) = 289.6 uA
If your circuit contains signals of the same quantity that are vastly different in size (such as high voltage circuitry combined with low voltage control circuitry), you should consider specifying global option `bin_relref=yes'.

~~~~~~~~~~~~~~~~~~~~~~~~~~~~~~~~~
Post-Transient Simulation Summary
~~~~~~~~~~~~~~~~~~~~~~~~~~~~~~~~~
   -   To further speed up simulation, consider
          add ++aps on command line
~~~~~~~~~~~~~~~~~~~~~~~~~~~~~~~~~


During simulation, the CPU load for active processors is :
         0 (47.0 %)      1 (30.5 %)      2 (30.3 %)      3 (20.0 %)
        Total: 127.9%
Initial condition solution time: CPU = 1.999 ms, elapsed = 2.31409 ms.
Intrinsic tran analysis time:    CPU = 188.972 ms, elapsed = 222.7 ms.
Total time required for tran analysis `trans-000_trans': CPU = 194.971 ms, elapsed = 227.579 ms.
Time accumulated: CPU = 3.9584 s, elapsed = 4.72856 s.
Peak resident memory used = 131 Mbytes.


Notice from spectre during task `MDLControl'.
    74 notices suppressed.
Warning from spectre.
    WARNING (SPECTRE-17101): The value 'psf' specified for the 'checklimitdest' option will no longer be supported in future releases. Use 'spectre -h' to see other recommended values for the 'checklimitdest' option.
    WARNING (SPECTRE-17101): The value 'psf' specified for the 'checklimitdest' option will no longer be supported in future releases. Use 'spectre -h' to see other recommended values for the 'checklimitdest' option.


**********************************************************
Transient Analysis `trans-000_trans': time = (0 s -> 1 us)
**********************************************************

Notice from spectre during IC analysis, during transient analysis `trans-000_trans', during task `MDLControl'.
    GminDC = 1 pS is large enough to noticeably affect the DC solution.
        dV(I12.PM26:int_d) = 148.544 uV
        Use the `gmin_check' option to eliminate or expand this report.

DC simulation time: CPU = 1.999 ms, elapsed = 2.24686 ms.

Opening the PSFXL file ./input.raw/trans-000_trans.tran.tran ...
Important parameter values:
    start = 0 s
    outputstart = 0 s
    stop = 1 us
    step = 1 ns
    maxstep = 20 ns
    ic = all
    useprevic = no
    skipdc = no
    reltol = 1e-03
    abstol(V) = 1 uV
    abstol(I) = 1 pA
    temp = 27 C
    tnom = 27 C
    tempeffects = all
    errpreset = moderate
    method = traponly
    lteratio = 3.5
    relref = sigglobal
    cmin = 0 F
    gmin = 1 pS


Output and IC/nodeset summary:
                 save   1       (current)
                 save   18      (voltage)

......9......

Notice from spectre at time = 189.901 ns during transient analysis `trans-000_trans', during task `MDLControl'.
    Found trapezoidal ringing on node V0:p.
Notice from spectre at time = 200 ns during transient analysis `trans-000_trans', during task `MDLControl'.
    Found trapezoidal ringing on node V0:p.

......9......8

Notice from spectre at time = 200.002 ns during transient analysis `trans-000_trans', during task `MDLControl'.
    Found trapezoidal ringing on node I12.NM15:int_s.
Notice from spectre at time = 200.003 ns during transient analysis `trans-000_trans', during task `MDLControl'.
    Found trapezoidal ringing on node I12.NM15:int_s.
Notice from spectre at time = 200.004 ns during transient analysis `trans-000_trans', during task `MDLControl'.
    Found trapezoidal ringing on node I12.NM15:int_s.
        Further occurrences of this notice will be suppressed.

......9......8......7......6......5......4......3......2......1......0
Number of accepted tran steps =             470

Notice from spectre during transient analysis `trans-000_trans', during task `MDLControl'.
    Trapezoidal ringing is detected during tran analysis.
        Please use method=trap for better results and performance.


Maximum value achieved for any signal of each quantity: 
V: V(I12.PM26:int_d) = 368.8 mV
I: I(V0:p) = 289.6 uA
If your circuit contains signals of the same quantity that are vastly different in size (such as high voltage circuitry combined with low voltage control circuitry), you should consider specifying global option `bin_relref=yes'.

~~~~~~~~~~~~~~~~~~~~~~~~~~~~~~~~~
Post-Transient Simulation Summary
~~~~~~~~~~~~~~~~~~~~~~~~~~~~~~~~~
   -   To further speed up simulation, consider
          add ++aps on command line
~~~~~~~~~~~~~~~~~~~~~~~~~~~~~~~~~


During simulation, the CPU load for active processors is :
         0 (45.9 %)      1 (32.9 %)      2 (29.9 %)      3 (18.9 %)
        Total: 127.6%
Initial condition solution time: CPU = 1.999 ms, elapsed = 2.28882 ms.
Intrinsic tran analysis time:    CPU = 188.972 ms, elapsed = 223.681 ms.
Total time required for tran analysis `trans-000_trans': CPU = 194.97 ms, elapsed = 228.764 ms.
Time accumulated: CPU = 4.19336 s, elapsed = 4.99777 s.
Peak resident memory used = 131 Mbytes.


Notice from spectre during task `MDLControl'.
    74 notices suppressed.
Warning from spectre.
    WARNING (SPECTRE-17101): The value 'psf' specified for the 'checklimitdest' option will no longer be supported in future releases. Use 'spectre -h' to see other recommended values for the 'checklimitdest' option.
    WARNING (SPECTRE-17101): The value 'psf' specified for the 'checklimitdest' option will no longer be supported in future releases. Use 'spectre -h' to see other recommended values for the 'checklimitdest' option.


**********************************************************
Transient Analysis `trans-000_trans': time = (0 s -> 1 us)
**********************************************************

Notice from spectre during IC analysis, during transient analysis `trans-000_trans', during task `MDLControl'.
    GminDC = 1 pS is large enough to noticeably affect the DC solution.
        dV(I12.PM26:int_d) = 148.523 uV
        Use the `gmin_check' option to eliminate or expand this report.

DC simulation time: CPU = 999 us, elapsed = 2.44212 ms.

Opening the PSFXL file ./input.raw/trans-000_trans.tran.tran ...
Important parameter values:
    start = 0 s
    outputstart = 0 s
    stop = 1 us
    step = 1 ns
    maxstep = 20 ns
    ic = all
    useprevic = no
    skipdc = no
    reltol = 1e-03
    abstol(V) = 1 uV
    abstol(I) = 1 pA
    temp = 27 C
    tnom = 27 C
    tempeffects = all
    errpreset = moderate
    method = traponly
    lteratio = 3.5
    relref = sigglobal
    cmin = 0 F
    gmin = 1 pS


Output and IC/nodeset summary:
                 save   1       (current)
                 save   18      (voltage)

......9......

Notice from spectre at time = 189.901 ns during transient analysis `trans-000_trans', during task `MDLControl'.
    Found trapezoidal ringing on node V0:p.
Notice from spectre at time = 200 ns during transient analysis `trans-000_trans', during task `MDLControl'.
    Found trapezoidal ringing on node V0:p.

......9......8

Notice from spectre at time = 200.002 ns during transient analysis `trans-000_trans', during task `MDLControl'.
    Found trapezoidal ringing on node I12.NM15:int_s.
Notice from spectre at time = 200.003 ns during transient analysis `trans-000_trans', during task `MDLControl'.
    Found trapezoidal ringing on node I12.NM15:int_s.
Notice from spectre at time = 200.004 ns during transient analysis `trans-000_trans', during task `MDLControl'.
    Found trapezoidal ringing on node I12.NM15:int_s.
        Further occurrences of this notice will be suppressed.

......9......8......7......6......5......4......3......2......1......0
Number of accepted tran steps =             470

Notice from spectre during transient analysis `trans-000_trans', during task `MDLControl'.
    Trapezoidal ringing is detected during tran analysis.
        Please use method=trap for better results and performance.


Maximum value achieved for any signal of each quantity: 
V: V(I12.PM26:int_d) = 368.8 mV
I: I(V0:p) = 289.6 uA
If your circuit contains signals of the same quantity that are vastly different in size (such as high voltage circuitry combined with low voltage control circuitry), you should consider specifying global option `bin_relref=yes'.

~~~~~~~~~~~~~~~~~~~~~~~~~~~~~~~~~
Post-Transient Simulation Summary
~~~~~~~~~~~~~~~~~~~~~~~~~~~~~~~~~
   -   To further speed up simulation, consider
          add ++aps on command line
~~~~~~~~~~~~~~~~~~~~~~~~~~~~~~~~~


During simulation, the CPU load for active processors is :
         0 (47.9 %)      1 (32.4 %)      2 (28.8 %)      3 (18.3 %)
        Total: 127.4%
Initial condition solution time: CPU = 999 us, elapsed = 2.48289 ms.
Intrinsic tran analysis time:    CPU = 192.971 ms, elapsed = 224.183 ms.
Total time required for tran analysis `trans-000_trans': CPU = 197.97 ms, elapsed = 229.25 ms.
Time accumulated: CPU = 4.42833 s, elapsed = 5.26538 s.
Peak resident memory used = 131 Mbytes.


Notice from spectre during task `MDLControl'.
    74 notices suppressed.
Warning from spectre.
    WARNING (SPECTRE-17101): The value 'psf' specified for the 'checklimitdest' option will no longer be supported in future releases. Use 'spectre -h' to see other recommended values for the 'checklimitdest' option.
    WARNING (SPECTRE-17101): The value 'psf' specified for the 'checklimitdest' option will no longer be supported in future releases. Use 'spectre -h' to see other recommended values for the 'checklimitdest' option.
    WARNING (SPECTRE-17101): The value 'psf' specified for the 'checklimitdest' option will no longer be supported in future releases. Use 'spectre -h' to see other recommended values for the 'checklimitdest' option.
    WARNING (SPECTRE-17101): The value 'psf' specified for the 'checklimitdest' option will no longer be supported in future releases. Use 'spectre -h' to see other recommended values for the 'checklimitdest' option.


**********************************************************
Transient Analysis `trans-000_trans': time = (0 s -> 1 us)
**********************************************************

Notice from spectre during IC analysis, during transient analysis `trans-000_trans', during task `MDLControl'.
    GminDC = 1 pS is large enough to noticeably affect the DC solution.
        dV(I12.PM26:int_d) = 82.774 uV
        Use the `gmin_check' option to eliminate or expand this report.

DC simulation time: CPU = 1.999 ms, elapsed = 2.10905 ms.

Opening the PSFXL file ./input.raw/trans-000_trans.tran.tran ...
Important parameter values:
    start = 0 s
    outputstart = 0 s
    stop = 1 us
    step = 1 ns
    maxstep = 20 ns
    ic = all
    useprevic = no
    skipdc = no
    reltol = 1e-03
    abstol(V) = 1 uV
    abstol(I) = 1 pA
    temp = 27 C
    tnom = 27 C
    tempeffects = all
    errpreset = moderate
    method = traponly
    lteratio = 3.5
    relref = sigglobal
    cmin = 0 F
    gmin = 1 pS


Output and IC/nodeset summary:
                 save   1       (current)
                 save   18      (voltage)

......9

Notice from spectre at time = 100.002 ns during transient analysis `trans-000_trans', during task `MDLControl'.
    Found trapezoidal ringing on node I12.NM15:int_s.
Notice from spectre at time = 100.003 ns during transient analysis `trans-000_trans', during task `MDLControl'.
    Found trapezoidal ringing on node I12.NM15:int_s.
Notice from spectre at time = 100.004 ns during transient analysis `trans-000_trans', during task `MDLControl'.
    Found trapezoidal ringing on node I12.NM15:int_s.
Notice from spectre at time = 100.005 ns during transient analysis `trans-000_trans', during task `MDLControl'.
    Found trapezoidal ringing on node I12.NM15:int_s.
Notice from spectre at time = 100.008 ns during transient analysis `trans-000_trans', during task `MDLControl'.
    Found trapezoidal ringing on node I12.NM15:int_s.
        Further occurrences of this notice will be suppressed.

......9......8......7......6......5......4......3......2......1......0
Number of accepted tran steps =             479

Notice from spectre during transient analysis `trans-000_trans', during task `MDLControl'.
    Trapezoidal ringing is detected during tran analysis.
        Please use method=trap for better results and performance.


Maximum value achieved for any signal of each quantity: 
V: V(I12.PM26:int_d) = 366.6 mV
I: I(V0:p) = 195.7 uA
If your circuit contains signals of the same quantity that are vastly different in size (such as high voltage circuitry combined with low voltage control circuitry), you should consider specifying global option `bin_relref=yes'.

~~~~~~~~~~~~~~~~~~~~~~~~~~~~~~~~~
Post-Transient Simulation Summary
~~~~~~~~~~~~~~~~~~~~~~~~~~~~~~~~~
   -   To further speed up simulation, consider
          add ++aps on command line
~~~~~~~~~~~~~~~~~~~~~~~~~~~~~~~~~


During simulation, the CPU load for active processors is :
         0 (50.4 %)      1 (31.1 %)      2 (27.9 %)      3 (18.6 %)
        Total: 127.9%
Initial condition solution time: CPU = 1.999 ms, elapsed = 2.15507 ms.
Intrinsic tran analysis time:    CPU = 198.97 ms, elapsed = 228.164 ms.
Total time required for tran analysis `trans-000_trans': CPU = 203.969 ms, elapsed = 233.067 ms.
Time accumulated: CPU = 4.70428 s, elapsed = 5.57215 s.
Peak resident memory used = 131 Mbytes.


Notice from spectre during task `MDLControl'.
    84 notices suppressed.
Warning from spectre.
    WARNING (SPECTRE-17101): The value 'psf' specified for the 'checklimitdest' option will no longer be supported in future releases. Use 'spectre -h' to see other recommended values for the 'checklimitdest' option.


**********************************************************
Transient Analysis `trans-000_trans': time = (0 s -> 1 us)
**********************************************************

Notice from spectre during IC analysis, during transient analysis `trans-000_trans', during task `MDLControl'.
    GminDC = 1 pS is large enough to noticeably affect the DC solution.
        dV(I12.PM26:int_d) = 82.7712 uV
        Use the `gmin_check' option to eliminate or expand this report.

DC simulation time: CPU = 2 ms, elapsed = 2.00701 ms.

Opening the PSFXL file ./input.raw/trans-000_trans.tran.tran ...
Important parameter values:
    start = 0 s
    outputstart = 0 s
    stop = 1 us
    step = 1 ns
    maxstep = 20 ns
    ic = all
    useprevic = no
    skipdc = no
    reltol = 1e-03
    abstol(V) = 1 uV
    abstol(I) = 1 pA
    temp = 27 C
    tnom = 27 C
    tempeffects = all
    errpreset = moderate
    method = traponly
    lteratio = 3.5
    relref = sigglobal
    cmin = 0 F
    gmin = 1 pS


Output and IC/nodeset summary:
                 save   1       (current)
                 save   18      (voltage)

......9

Notice from spectre at time = 100.002 ns during transient analysis `trans-000_trans', during task `MDLControl'.
    Found trapezoidal ringing on node I12.NM15:int_s.
Notice from spectre at time = 100.003 ns during transient analysis `trans-000_trans', during task `MDLControl'.
    Found trapezoidal ringing on node I12.NM15:int_s.
Notice from spectre at time = 100.004 ns during transient analysis `trans-000_trans', during task `MDLControl'.
    Found trapezoidal ringing on node I12.NM15:int_s.
Notice from spectre at time = 100.005 ns during transient analysis `trans-000_trans', during task `MDLControl'.
    Found trapezoidal ringing on node I12.NM15:int_s.
Notice from spectre at time = 100.008 ns during transient analysis `trans-000_trans', during task `MDLControl'.
    Found trapezoidal ringing on node I12.NM15:int_s.
        Further occurrences of this notice will be suppressed.

......9......8......7......6......5......4......3......2......1......0
Number of accepted tran steps =             479

Notice from spectre during transient analysis `trans-000_trans', during task `MDLControl'.
    Trapezoidal ringing is detected during tran analysis.
        Please use method=trap for better results and performance.


Maximum value achieved for any signal of each quantity: 
V: V(I12.PM26:int_d) = 366.6 mV
I: I(V0:p) = 195.7 uA
If your circuit contains signals of the same quantity that are vastly different in size (such as high voltage circuitry combined with low voltage control circuitry), you should consider specifying global option `bin_relref=yes'.

~~~~~~~~~~~~~~~~~~~~~~~~~~~~~~~~~
Post-Transient Simulation Summary
~~~~~~~~~~~~~~~~~~~~~~~~~~~~~~~~~
   -   To further speed up simulation, consider
          add ++aps on command line
~~~~~~~~~~~~~~~~~~~~~~~~~~~~~~~~~


During simulation, the CPU load for active processors is :
         0 (49.4 %)      1 (33.6 %)      2 (27.0 %)      3 (17.9 %)
        Total: 127.9%
Initial condition solution time: CPU = 2 ms, elapsed = 2.04706 ms.
Intrinsic tran analysis time:    CPU = 195.97 ms, elapsed = 225.134 ms.
Total time required for tran analysis `trans-000_trans': CPU = 200.97 ms, elapsed = 229.747 ms.
Time accumulated: CPU = 4.92525 s, elapsed = 5.82241 s.
Peak resident memory used = 131 Mbytes.


Notice from spectre during task `MDLControl'.
    84 notices suppressed.
Warning from spectre.
    WARNING (SPECTRE-17101): The value 'psf' specified for the 'checklimitdest' option will no longer be supported in future releases. Use 'spectre -h' to see other recommended values for the 'checklimitdest' option.
    WARNING (SPECTRE-17101): The value 'psf' specified for the 'checklimitdest' option will no longer be supported in future releases. Use 'spectre -h' to see other recommended values for the 'checklimitdest' option.


**********************************************************
Transient Analysis `trans-000_trans': time = (0 s -> 1 us)
**********************************************************

Notice from spectre during IC analysis, during transient analysis `trans-000_trans', during task `MDLControl'.
    GminDC = 1 pS is large enough to noticeably affect the DC solution.
        dV(I12.PM26:int_d) = 82.774 uV
        Use the `gmin_check' option to eliminate or expand this report.

DC simulation time: CPU = 2 ms, elapsed = 2.03896 ms.

Opening the PSFXL file ./input.raw/trans-000_trans.tran.tran ...
Important parameter values:
    start = 0 s
    outputstart = 0 s
    stop = 1 us
    step = 1 ns
    maxstep = 20 ns
    ic = all
    useprevic = no
    skipdc = no
    reltol = 1e-03
    abstol(V) = 1 uV
    abstol(I) = 1 pA
    temp = 27 C
    tnom = 27 C
    tempeffects = all
    errpreset = moderate
    method = traponly
    lteratio = 3.5
    relref = sigglobal
    cmin = 0 F
    gmin = 1 pS


Output and IC/nodeset summary:
                 save   1       (current)
                 save   18      (voltage)

......9

Notice from spectre at time = 100.002 ns during transient analysis `trans-000_trans', during task `MDLControl'.
    Found trapezoidal ringing on node I12.NM15:int_s.
Notice from spectre at time = 100.003 ns during transient analysis `trans-000_trans', during task `MDLControl'.
    Found trapezoidal ringing on node I12.NM15:int_s.
Notice from spectre at time = 100.004 ns during transient analysis `trans-000_trans', during task `MDLControl'.
    Found trapezoidal ringing on node I12.NM15:int_s.
Notice from spectre at time = 100.005 ns during transient analysis `trans-000_trans', during task `MDLControl'.
    Found trapezoidal ringing on node I12.NM15:int_s.
Notice from spectre at time = 100.008 ns during transient analysis `trans-000_trans', during task `MDLControl'.
    Found trapezoidal ringing on node I12.NM15:int_s.
        Further occurrences of this notice will be suppressed.

......9......8......7......6......5......4......3......2......1......0
Number of accepted tran steps =             479

Notice from spectre during transient analysis `trans-000_trans', during task `MDLControl'.
    Trapezoidal ringing is detected during tran analysis.
        Please use method=trap for better results and performance.


Maximum value achieved for any signal of each quantity: 
V: V(I12.PM26:int_d) = 366.6 mV
I: I(V0:p) = 195.7 uA
If your circuit contains signals of the same quantity that are vastly different in size (such as high voltage circuitry combined with low voltage control circuitry), you should consider specifying global option `bin_relref=yes'.

~~~~~~~~~~~~~~~~~~~~~~~~~~~~~~~~~
Post-Transient Simulation Summary
~~~~~~~~~~~~~~~~~~~~~~~~~~~~~~~~~
   -   To further speed up simulation, consider
          add ++aps on command line
~~~~~~~~~~~~~~~~~~~~~~~~~~~~~~~~~


During simulation, the CPU load for active processors is :
         0 (51.2 %)      1 (33.2 %)      2 (26.1 %)      3 (17.1 %)
        Total: 127.6%
Initial condition solution time: CPU = 2 ms, elapsed = 2.07901 ms.
Intrinsic tran analysis time:    CPU = 199.969 ms, elapsed = 233.615 ms.
Total time required for tran analysis `trans-000_trans': CPU = 205.968 ms, elapsed = 238.315 ms.
Time accumulated: CPU = 5.16821 s, elapsed = 6.09943 s.
Peak resident memory used = 131 Mbytes.


Notice from spectre during task `MDLControl'.
    84 notices suppressed.
Warning from spectre.
    WARNING (SPECTRE-17101): The value 'psf' specified for the 'checklimitdest' option will no longer be supported in future releases. Use 'spectre -h' to see other recommended values for the 'checklimitdest' option.
    WARNING (SPECTRE-17101): The value 'psf' specified for the 'checklimitdest' option will no longer be supported in future releases. Use 'spectre -h' to see other recommended values for the 'checklimitdest' option.


**********************************************************
Transient Analysis `trans-000_trans': time = (0 s -> 1 us)
**********************************************************

Notice from spectre during IC analysis, during transient analysis `trans-000_trans', during task `MDLControl'.
    GminDC = 1 pS is large enough to noticeably affect the DC solution.
        dV(I12.PM26:int_d) = 82.7897 uV
        Use the `gmin_check' option to eliminate or expand this report.

DC simulation time: CPU = 2 ms, elapsed = 2.02298 ms.

Opening the PSFXL file ./input.raw/trans-000_trans.tran.tran ...
Important parameter values:
    start = 0 s
    outputstart = 0 s
    stop = 1 us
    step = 1 ns
    maxstep = 20 ns
    ic = all
    useprevic = no
    skipdc = no
    reltol = 1e-03
    abstol(V) = 1 uV
    abstol(I) = 1 pA
    temp = 27 C
    tnom = 27 C
    tempeffects = all
    errpreset = moderate
    method = traponly
    lteratio = 3.5
    relref = sigglobal
    cmin = 0 F
    gmin = 1 pS


Output and IC/nodeset summary:
                 save   1       (current)
                 save   18      (voltage)

......9

Notice from spectre at time = 100.002 ns during transient analysis `trans-000_trans', during task `MDLControl'.
    Found trapezoidal ringing on node I12.NM15:int_s.
Notice from spectre at time = 100.003 ns during transient analysis `trans-000_trans', during task `MDLControl'.
    Found trapezoidal ringing on node I12.NM15:int_s.
Notice from spectre at time = 100.004 ns during transient analysis `trans-000_trans', during task `MDLControl'.
    Found trapezoidal ringing on node I12.NM15:int_s.
Notice from spectre at time = 100.005 ns during transient analysis `trans-000_trans', during task `MDLControl'.
    Found trapezoidal ringing on node I12.NM15:int_s.
Notice from spectre at time = 100.008 ns during transient analysis `trans-000_trans', during task `MDLControl'.
    Found trapezoidal ringing on node I12.NM15:int_s.
        Further occurrences of this notice will be suppressed.

......9......8......7......6......5......4......3......2......1......0
Number of accepted tran steps =             479

Notice from spectre during transient analysis `trans-000_trans', during task `MDLControl'.
    Trapezoidal ringing is detected during tran analysis.
        Please use method=trap for better results and performance.


Maximum value achieved for any signal of each quantity: 
V: V(I12.PM26:int_d) = 366.6 mV
I: I(V0:p) = 195.7 uA
If your circuit contains signals of the same quantity that are vastly different in size (such as high voltage circuitry combined with low voltage control circuitry), you should consider specifying global option `bin_relref=yes'.

~~~~~~~~~~~~~~~~~~~~~~~~~~~~~~~~~
Post-Transient Simulation Summary
~~~~~~~~~~~~~~~~~~~~~~~~~~~~~~~~~
   -   To further speed up simulation, consider
          add ++aps on command line
~~~~~~~~~~~~~~~~~~~~~~~~~~~~~~~~~


During simulation, the CPU load for active processors is :
         0 (52.9 %)      1 (32.6 %)      2 (25.4 %)      3 (16.5 %)
        Total: 127.4%
Initial condition solution time: CPU = 2 ms, elapsed = 2.0628 ms.
Intrinsic tran analysis time:    CPU = 199.97 ms, elapsed = 231.082 ms.
Total time required for tran analysis `trans-000_trans': CPU = 204.969 ms, elapsed = 235.748 ms.
Time accumulated: CPU = 5.41218 s, elapsed = 6.37494 s.
Peak resident memory used = 131 Mbytes.


Notice from spectre during task `MDLControl'.
    84 notices suppressed.
Warning from spectre.
    WARNING (SPECTRE-17101): The value 'psf' specified for the 'checklimitdest' option will no longer be supported in future releases. Use 'spectre -h' to see other recommended values for the 'checklimitdest' option.
    WARNING (SPECTRE-17101): The value 'psf' specified for the 'checklimitdest' option will no longer be supported in future releases. Use 'spectre -h' to see other recommended values for the 'checklimitdest' option.


**********************************************************
Transient Analysis `trans-000_trans': time = (0 s -> 1 us)
**********************************************************

Notice from spectre during IC analysis, during transient analysis `trans-000_trans', during task `MDLControl'.
    GminDC = 1 pS is large enough to noticeably affect the DC solution.
        dV(I12.PM26:int_d) = 82.774 uV
        Use the `gmin_check' option to eliminate or expand this report.

DC simulation time: CPU = 2 ms, elapsed = 2.08092 ms.

Opening the PSFXL file ./input.raw/trans-000_trans.tran.tran ...
Important parameter values:
    start = 0 s
    outputstart = 0 s
    stop = 1 us
    step = 1 ns
    maxstep = 20 ns
    ic = all
    useprevic = no
    skipdc = no
    reltol = 1e-03
    abstol(V) = 1 uV
    abstol(I) = 1 pA
    temp = 27 C
    tnom = 27 C
    tempeffects = all
    errpreset = moderate
    method = traponly
    lteratio = 3.5
    relref = sigglobal
    cmin = 0 F
    gmin = 1 pS


Output and IC/nodeset summary:
                 save   1       (current)
                 save   18      (voltage)

......9

Notice from spectre at time = 100.002 ns during transient analysis `trans-000_trans', during task `MDLControl'.
    Found trapezoidal ringing on node I12.NM15:int_s.
Notice from spectre at time = 100.003 ns during transient analysis `trans-000_trans', during task `MDLControl'.
    Found trapezoidal ringing on node I12.NM15:int_s.
Notice from spectre at time = 100.004 ns during transient analysis `trans-000_trans', during task `MDLControl'.
    Found trapezoidal ringing on node I12.NM15:int_s.
Notice from spectre at time = 100.005 ns during transient analysis `trans-000_trans', during task `MDLControl'.
    Found trapezoidal ringing on node I12.NM15:int_s.
Notice from spectre at time = 100.008 ns during transient analysis `trans-000_trans', during task `MDLControl'.
    Found trapezoidal ringing on node I12.NM15:int_s.
        Further occurrences of this notice will be suppressed.

......9......8......7......6......5......4......3......2......1......0
Number of accepted tran steps =             479

Notice from spectre during transient analysis `trans-000_trans', during task `MDLControl'.
    Trapezoidal ringing is detected during tran analysis.
        Please use method=trap for better results and performance.


Maximum value achieved for any signal of each quantity: 
V: V(I12.PM26:int_d) = 366.6 mV
I: I(V0:p) = 195.7 uA
If your circuit contains signals of the same quantity that are vastly different in size (such as high voltage circuitry combined with low voltage control circuitry), you should consider specifying global option `bin_relref=yes'.

~~~~~~~~~~~~~~~~~~~~~~~~~~~~~~~~~
Post-Transient Simulation Summary
~~~~~~~~~~~~~~~~~~~~~~~~~~~~~~~~~
   -   To further speed up simulation, consider
          add ++aps on command line
~~~~~~~~~~~~~~~~~~~~~~~~~~~~~~~~~


During simulation, the CPU load for active processors is :
         0 (54.5 %)      1 (32.3 %)      2 (25.1 %)      3 (16.1 %)
        Total: 128.1%
Initial condition solution time: CPU = 2 ms, elapsed = 2.12097 ms.
Intrinsic tran analysis time:    CPU = 201.969 ms, elapsed = 232.976 ms.
Total time required for tran analysis `trans-000_trans': CPU = 205.968 ms, elapsed = 237.636 ms.
Time accumulated: CPU = 5.65714 s, elapsed = 6.65204 s.
Peak resident memory used = 131 Mbytes.


Notice from spectre during task `MDLControl'.
    84 notices suppressed.
Warning from spectre.
    WARNING (SPECTRE-17101): The value 'psf' specified for the 'checklimitdest' option will no longer be supported in future releases. Use 'spectre -h' to see other recommended values for the 'checklimitdest' option.
    WARNING (SPECTRE-17101): The value 'psf' specified for the 'checklimitdest' option will no longer be supported in future releases. Use 'spectre -h' to see other recommended values for the 'checklimitdest' option.
    WARNING (SPECTRE-17101): The value 'psf' specified for the 'checklimitdest' option will no longer be supported in future releases. Use 'spectre -h' to see other recommended values for the 'checklimitdest' option.
    WARNING (SPECTRE-17101): The value 'psf' specified for the 'checklimitdest' option will no longer be supported in future releases. Use 'spectre -h' to see other recommended values for the 'checklimitdest' option.


**********************************************************
Transient Analysis `trans-000_trans': time = (0 s -> 1 us)
**********************************************************

Notice from spectre during IC analysis, during transient analysis `trans-000_trans', during task `MDLControl'.
    GminDC = 1 pS is large enough to noticeably affect the DC solution.
        dV(I12.PM26:int_d) = 160.113 uV
        Use the `gmin_check' option to eliminate or expand this report.

DC simulation time: CPU = 1.999 ms, elapsed = 2.10118 ms.

Opening the PSFXL file ./input.raw/trans-000_trans.tran.tran ...
Important parameter values:
    start = 0 s
    outputstart = 0 s
    stop = 1 us
    step = 1 ns
    maxstep = 20 ns
    ic = all
    useprevic = no
    skipdc = no
    reltol = 1e-03
    abstol(V) = 1 uV
    abstol(I) = 1 pA
    temp = 27 C
    tnom = 27 C
    tempeffects = all
    errpreset = moderate
    method = traponly
    lteratio = 3.5
    relref = sigglobal
    cmin = 0 F
    gmin = 1 pS


Output and IC/nodeset summary:
                 save   1       (current)
                 save   18      (voltage)

......9

Notice from spectre at time = 100.002 ns during transient analysis `trans-000_trans', during task `MDLControl'.
    Found trapezoidal ringing on node I12.NM15:int_s.
Notice from spectre at time = 100.003 ns during transient analysis `trans-000_trans', during task `MDLControl'.
    Found trapezoidal ringing on node I12.NM15:int_s.
Notice from spectre at time = 100.004 ns during transient analysis `trans-000_trans', during task `MDLControl'.
    Found trapezoidal ringing on node I12.NM15:int_s.
Notice from spectre at time = 100.005 ns during transient analysis `trans-000_trans', during task `MDLControl'.
    Found trapezoidal ringing on node I12.NM15:int_s.
Notice from spectre at time = 100.008 ns during transient analysis `trans-000_trans', during task `MDLControl'.
    Found trapezoidal ringing on node I12.NM15:int_s.
        Further occurrences of this notice will be suppressed.

......9......8......7......6......5......4......3......2......1......0
Number of accepted tran steps =             478

Notice from spectre during transient analysis `trans-000_trans', during task `MDLControl'.
    Trapezoidal ringing is detected during tran analysis.
        Please use method=trap for better results and performance.


Maximum value achieved for any signal of each quantity: 
V: V(I12.PM26:int_d) = 363.3 mV
I: I(V0:p) = 73.85 uA
If your circuit contains signals of the same quantity that are vastly different in size (such as high voltage circuitry combined with low voltage control circuitry), you should consider specifying global option `bin_relref=yes'.

~~~~~~~~~~~~~~~~~~~~~~~~~~~~~~~~~
Post-Transient Simulation Summary
~~~~~~~~~~~~~~~~~~~~~~~~~~~~~~~~~
   -   To further speed up simulation, consider
          add ++aps on command line
~~~~~~~~~~~~~~~~~~~~~~~~~~~~~~~~~


During simulation, the CPU load for active processors is :
         0 (55.9 %)      1 (31.7 %)      2 (24.1 %)      3 (15.5 %)
        Total: 127.3%
Initial condition solution time: CPU = 1.999 ms, elapsed = 2.14005 ms.
Intrinsic tran analysis time:    CPU = 201.97 ms, elapsed = 263.107 ms.
Total time required for tran analysis `trans-000_trans': CPU = 206.969 ms, elapsed = 267.834 ms.
Time accumulated: CPU = 5.9391 s, elapsed = 6.99644 s.
Peak resident memory used = 131 Mbytes.


Notice from spectre during task `MDLControl'.
    83 notices suppressed.
Warning from spectre.
    WARNING (SPECTRE-17101): The value 'psf' specified for the 'checklimitdest' option will no longer be supported in future releases. Use 'spectre -h' to see other recommended values for the 'checklimitdest' option.
    WARNING (SPECTRE-17101): The value 'psf' specified for the 'checklimitdest' option will no longer be supported in future releases. Use 'spectre -h' to see other recommended values for the 'checklimitdest' option.
    WARNING (SPECTRE-17101): The value 'psf' specified for the 'checklimitdest' option will no longer be supported in future releases. Use 'spectre -h' to see other recommended values for the 'checklimitdest' option.


**********************************************************
Transient Analysis `trans-000_trans': time = (0 s -> 1 us)
**********************************************************
DC simulation time: CPU = 3 ms, elapsed = 2.74801 ms.

Opening the PSFXL file ./input.raw/trans-000_trans.tran.tran ...
Important parameter values:
    start = 0 s
    outputstart = 0 s
    stop = 1 us
    step = 1 ns
    maxstep = 20 ns
    ic = all
    useprevic = no
    skipdc = no
    reltol = 1e-03
    abstol(V) = 1 uV
    abstol(I) = 1 pA
    temp = 27 C
    tnom = 27 C
    tempeffects = all
    errpreset = moderate
    method = traponly
    lteratio = 3.5
    relref = sigglobal
    cmin = 0 F
    gmin = 1 pS


Output and IC/nodeset summary:
                 save   1       (current)
                 save   18      (voltage)

......9

Notice from spectre at time = 100.002 ns during transient analysis `trans-000_trans', during task `MDLControl'.
    Found trapezoidal ringing on node I12.NM15:int_s.
Notice from spectre at time = 100.003 ns during transient analysis `trans-000_trans', during task `MDLControl'.
    Found trapezoidal ringing on node I12.NM15:int_s.
Notice from spectre at time = 100.004 ns during transient analysis `trans-000_trans', during task `MDLControl'.
    Found trapezoidal ringing on node I12.NM15:int_s.
Notice from spectre at time = 100.005 ns during transient analysis `trans-000_trans', during task `MDLControl'.
    Found trapezoidal ringing on node I12.NM15:int_s.
Notice from spectre at time = 100.008 ns during transient analysis `trans-000_trans', during task `MDLControl'.
    Found trapezoidal ringing on node I12.NM15:int_s.
        Further occurrences of this notice will be suppressed.

......9......8......7......6......5......4......3......2......1......0
Number of accepted tran steps =             451

Notice from spectre during transient analysis `trans-000_trans', during task `MDLControl'.
    Trapezoidal ringing is detected during tran analysis.
        Please use method=trap for better results and performance.


Maximum value achieved for any signal of each quantity: 
V: V(I12.PM15:int_s) = 366.2 mV
I: I(V0:p) = 177 uA
If your circuit contains signals of the same quantity that are vastly different in size (such as high voltage circuitry combined with low voltage control circuitry), you should consider specifying global option `bin_relref=yes'.

~~~~~~~~~~~~~~~~~~~~~~~~~~~~~~~~~
Post-Transient Simulation Summary
~~~~~~~~~~~~~~~~~~~~~~~~~~~~~~~~~
   -   To further speed up simulation, consider
          add ++aps on command line
~~~~~~~~~~~~~~~~~~~~~~~~~~~~~~~~~


During simulation, the CPU load for active processors is :
         0 (57.4 %)      1 (30.9 %)      2 (23.9 %)      3 (15.0 %)
        Total: 127.1%
Initial condition solution time: CPU = 3 ms, elapsed = 2.79379 ms.
Intrinsic tran analysis time:    CPU = 183.972 ms, elapsed = 216.881 ms.
Total time required for tran analysis `trans-000_trans': CPU = 188.971 ms, elapsed = 222.228 ms.
Time accumulated: CPU = 6.18506 s, elapsed = 7.27622 s.
Peak resident memory used = 131 Mbytes.


Notice from spectre during task `MDLControl'.
    78 notices suppressed.
Warning from spectre.
    WARNING (SPECTRE-17101): The value 'psf' specified for the 'checklimitdest' option will no longer be supported in future releases. Use 'spectre -h' to see other recommended values for the 'checklimitdest' option.
    WARNING (SPECTRE-17101): The value 'psf' specified for the 'checklimitdest' option will no longer be supported in future releases. Use 'spectre -h' to see other recommended values for the 'checklimitdest' option.
    WARNING (SPECTRE-17101): The value 'psf' specified for the 'checklimitdest' option will no longer be supported in future releases. Use 'spectre -h' to see other recommended values for the 'checklimitdest' option.
    WARNING (SPECTRE-17101): The value 'psf' specified for the 'checklimitdest' option will no longer be supported in future releases. Use 'spectre -h' to see other recommended values for the 'checklimitdest' option.


**********************************************************
Transient Analysis `trans-000_trans': time = (0 s -> 1 us)
**********************************************************

Notice from spectre during IC analysis, during transient analysis `trans-000_trans', during task `MDLControl'.
    GminDC = 1 pS is large enough to noticeably affect the DC solution.
        dV(I12.PM26:int_d) = 75.1872 uV
        Use the `gmin_check' option to eliminate or expand this report.

DC simulation time: CPU = 3 ms, elapsed = 2.99597 ms.

Opening the PSFXL file ./input.raw/trans-000_trans.tran.tran ...
Important parameter values:
    start = 0 s
    outputstart = 0 s
    stop = 1 us
    step = 1 ns
    maxstep = 20 ns
    ic = all
    useprevic = no
    skipdc = no
    reltol = 1e-03
    abstol(V) = 1 uV
    abstol(I) = 1 pA
    temp = 27 C
    tnom = 27 C
    tempeffects = all
    errpreset = moderate
    method = traponly
    lteratio = 3.5
    relref = sigglobal
    cmin = 0 F
    gmin = 1 pS


Output and IC/nodeset summary:
                 save   1       (current)
                 save   18      (voltage)

......9

Notice from spectre at time = 100.002 ns during transient analysis `trans-000_trans', during task `MDLControl'.
    Found trapezoidal ringing on node I12.NM15:int_s.
Notice from spectre at time = 100.003 ns during transient analysis `trans-000_trans', during task `MDLControl'.
    Found trapezoidal ringing on node I12.NM15:int_s.
Notice from spectre at time = 100.004 ns during transient analysis `trans-000_trans', during task `MDLControl'.
    Found trapezoidal ringing on node I12.NM15:int_s.
Notice from spectre at time = 100.005 ns during transient analysis `trans-000_trans', during task `MDLControl'.
    Found trapezoidal ringing on node I12.NM15:int_s.
Notice from spectre at time = 100.008 ns during transient analysis `trans-000_trans', during task `MDLControl'.
    Found trapezoidal ringing on node I12.NM15:int_s.
        Further occurrences of this notice will be suppressed.

[...]
          add ++aps on command line
~~~~~~~~~~~~~~~~~~~~~~~~~~~~~~~~~


During simulation, the CPU load for active processors is :
         0 (53.7 %)      1 (47.8 %)      2 (16.9 %)      3 (9.7 %)
        Total: 128.1%
Initial condition solution time: CPU = 3 ms, elapsed = 2.61903 ms.
Intrinsic tran analysis time:    CPU = 199.97 ms, elapsed = 227.075 ms.
Total time required for tran analysis `trans-000_trans': CPU = 204.969 ms, elapsed = 232.226 ms.
Time accumulated: CPU = 18.8351 s, elapsed = 21.5899 s.
Peak resident memory used = 132 Mbytes.


Notice from spectre during task `MDLControl'.
    86 notices suppressed.
Warning from spectre.
    WARNING (SPECTRE-17101): The value 'psf' specified for the 'checklimitdest' option will no longer be supported in future releases. Use 'spectre -h' to see other recommended values for the 'checklimitdest' option.


**********************************************************
Transient Analysis `trans-000_trans': time = (0 s -> 1 us)
**********************************************************

Notice from spectre during IC analysis, during transient analysis `trans-000_trans', during task `MDLControl'.
    GminDC = 1 pS is large enough to noticeably affect the DC solution.
        dV(I12.PM26:int_d) = 80.8397 uV
        Use the `gmin_check' option to eliminate or expand this report.

DC simulation time: CPU = 3 ms, elapsed = 3.52597 ms.

Opening the PSFXL file ./input.raw/trans-000_trans.tran.tran ...
Important parameter values:
    start = 0 s
    outputstart = 0 s
    stop = 1 us
    step = 1 ns
    maxstep = 20 ns
    ic = all
    useprevic = no
    skipdc = no
    reltol = 1e-03
    abstol(V) = 1 uV
    abstol(I) = 1 pA
    temp = 27 C
    tnom = 27 C
    tempeffects = all
    errpreset = moderate
    method = traponly
    lteratio = 3.5
    relref = sigglobal
    cmin = 0 F
    gmin = 1 pS


Output and IC/nodeset summary:
                 save   1       (current)
                 save   18      (voltage)

......9

Notice from spectre at time = 100.002 ns during transient analysis `trans-000_trans', during task `MDLControl'.
    Found trapezoidal ringing on node I12.NM15:int_s.
Notice from spectre at time = 100.003 ns during transient analysis `trans-000_trans', during task `MDLControl'.
    Found trapezoidal ringing on node I12.NM15:int_s.
Notice from spectre at time = 100.004 ns during transient analysis `trans-000_trans', during task `MDLControl'.
    Found trapezoidal ringing on node I12.NM15:int_s.
Notice from spectre at time = 100.005 ns during transient analysis `trans-000_trans', during task `MDLControl'.
    Found trapezoidal ringing on node I12.NM15:int_s.
Notice from spectre at time = 100.008 ns during transient analysis `trans-000_trans', during task `MDLControl'.
    Found trapezoidal ringing on node I12.NM15:int_s.
        Further occurrences of this notice will be suppressed.

......9......8......7......6......5......4......3......2......1......0
Number of accepted tran steps =             452

Notice from spectre during transient analysis `trans-000_trans', during task `MDLControl'.
    Trapezoidal ringing is detected during tran analysis.
        Please use method=trap for better results and performance.


Maximum value achieved for any signal of each quantity: 
V: V(I12.PM26:int_d) = 366.6 mV
I: I(V0:p) = 195.3 uA
If your circuit contains signals of the same quantity that are vastly different in size (such as high voltage circuitry combined with low voltage control circuitry), you should consider specifying global option `bin_relref=yes'.

~~~~~~~~~~~~~~~~~~~~~~~~~~~~~~~~~
Post-Transient Simulation Summary
~~~~~~~~~~~~~~~~~~~~~~~~~~~~~~~~~
   -   To further speed up simulation, consider
          add ++aps on command line
~~~~~~~~~~~~~~~~~~~~~~~~~~~~~~~~~


During simulation, the CPU load for active processors is :
         0 (53.7 %)      1 (48.2 %)      2 (16.8 %)      3 (9.7 %)
        Total: 128.4%
Initial condition solution time: CPU = 3 ms, elapsed = 3.57699 ms.
Intrinsic tran analysis time:    CPU = 183.971 ms, elapsed = 218.387 ms.
Total time required for tran analysis `trans-000_trans': CPU = 190.97 ms, elapsed = 225.163 ms.
Time accumulated: CPU = 19.0461 s, elapsed = 21.8354 s.
Peak resident memory used = 132 Mbytes.


Notice from spectre during task `MDLControl'.
    79 notices suppressed.
Warning from spectre.
    WARNING (SPECTRE-17101): The value 'psf' specified for the 'checklimitdest' option will no longer be supported in future releases. Use 'spectre -h' to see other recommended values for the 'checklimitdest' option.
    WARNING (SPECTRE-17101): The value 'psf' specified for the 'checklimitdest' option will no longer be supported in future releases. Use 'spectre -h' to see other recommended values for the 'checklimitdest' option.


**********************************************************
Transient Analysis `trans-000_trans': time = (0 s -> 1 us)
**********************************************************

Notice from spectre during IC analysis, during transient analysis `trans-000_trans', during task `MDLControl'.
    GminDC = 1 pS is large enough to noticeably affect the DC solution.
        dV(I12.PM26:int_d) = 80.8424 uV
        Use the `gmin_check' option to eliminate or expand this report.

DC simulation time: CPU = 2.999 ms, elapsed = 2.61092 ms.

Opening the PSFXL file ./input.raw/trans-000_trans.tran.tran ...
Important parameter values:
    start = 0 s
    outputstart = 0 s
    stop = 1 us
    step = 1 ns
    maxstep = 20 ns
    ic = all
    useprevic = no
    skipdc = no
    reltol = 1e-03
    abstol(V) = 1 uV
    abstol(I) = 1 pA
    temp = 27 C
    tnom = 27 C
    tempeffects = all
    errpreset = moderate
    method = traponly
    lteratio = 3.5
    relref = sigglobal
    cmin = 0 F
    gmin = 1 pS


Output and IC/nodeset summary:
                 save   1       (current)
                 save   18      (voltage)

......9

Notice from spectre at time = 100.002 ns during transient analysis `trans-000_trans', during task `MDLControl'.
    Found trapezoidal ringing on node I12.NM15:int_s.
Notice from spectre at time = 100.003 ns during transient analysis `trans-000_trans', during task `MDLControl'.
    Found trapezoidal ringing on node I12.NM15:int_s.
Notice from spectre at time = 100.004 ns during transient analysis `trans-000_trans', during task `MDLControl'.
    Found trapezoidal ringing on node I12.NM15:int_s.
Notice from spectre at time = 100.005 ns during transient analysis `trans-000_trans', during task `MDLControl'.
    Found trapezoidal ringing on node I12.NM15:int_s.
Notice from spectre at time = 100.008 ns during transient analysis `trans-000_trans', during task `MDLControl'.
    Found trapezoidal ringing on node I12.NM15:int_s.
        Further occurrences of this notice will be suppressed.

......9......8......7......6......5......4......3......2......1......0
Number of accepted tran steps =             479

Notice from spectre during transient analysis `trans-000_trans', during task `MDLControl'.
    Trapezoidal ringing is detected during tran analysis.
        Please use method=trap for better results and performance.


Maximum value achieved for any signal of each quantity: 
V: V(I12.PM26:int_d) = 366.6 mV
I: I(V0:p) = 195.2 uA
If your circuit contains signals of the same quantity that are vastly different in size (such as high voltage circuitry combined with low voltage control circuitry), you should consider specifying global option `bin_relref=yes'.

~~~~~~~~~~~~~~~~~~~~~~~~~~~~~~~~~
Post-Transient Simulation Summary
~~~~~~~~~~~~~~~~~~~~~~~~~~~~~~~~~
   -   To further speed up simulation, consider
          add ++aps on command line
~~~~~~~~~~~~~~~~~~~~~~~~~~~~~~~~~


During simulation, the CPU load for active processors is :
         0 (53.3 %)      1 (48.8 %)      2 (16.7 %)      3 (9.6 %)
        Total: 128.3%
Initial condition solution time: CPU = 2.999 ms, elapsed = 2.65193 ms.
Intrinsic tran analysis time:    CPU = 196.971 ms, elapsed = 228.27 ms.
Total time required for tran analysis `trans-000_trans': CPU = 202.969 ms, elapsed = 233.726 ms.
Time accumulated: CPU = 19.2861 s, elapsed = 22.1077 s.
Peak resident memory used = 132 Mbytes.


Notice from spectre during task `MDLControl'.
    86 notices suppressed.
Warning from spectre.
    WARNING (SPECTRE-17101): The value 'psf' specified for the 'checklimitdest' option will no longer be supported in future releases. Use 'spectre -h' to see other recommended values for the 'checklimitdest' option.
    WARNING (SPECTRE-17101): The value 'psf' specified for the 'checklimitdest' option will no longer be supported in future releases. Use 'spectre -h' to see other recommended values for the 'checklimitdest' option.


**********************************************************
Transient Analysis `trans-000_trans': time = (0 s -> 1 us)
**********************************************************

Notice from spectre during IC analysis, during transient analysis `trans-000_trans', during task `MDLControl'.
    GminDC = 1 pS is large enough to noticeably affect the DC solution.
        dV(I12.PM26:int_d) = 80.8578 uV
        Use the `gmin_check' option to eliminate or expand this report.

DC simulation time: CPU = 1.999 ms, elapsed = 2.00009 ms.

Opening the PSFXL file ./input.raw/trans-000_trans.tran.tran ...
Important parameter values:
    start = 0 s
    outputstart = 0 s
    stop = 1 us
    step = 1 ns
    maxstep = 20 ns
    ic = all
    useprevic = no
    skipdc = no
    reltol = 1e-03
    abstol(V) = 1 uV
    abstol(I) = 1 pA
    temp = 27 C
    tnom = 27 C
    tempeffects = all
    errpreset = moderate
    method = traponly
    lteratio = 3.5
    relref = sigglobal
    cmin = 0 F
    gmin = 1 pS


Output and IC/nodeset summary:
                 save   1       (current)
                 save   18      (voltage)

......9

Notice from spectre at time = 100.002 ns during transient analysis `trans-000_trans', during task `MDLControl'.
    Found trapezoidal ringing on node I12.NM15:int_s.
Notice from spectre at time = 100.003 ns during transient analysis `trans-000_trans', during task `MDLControl'.
    Found trapezoidal ringing on node I12.NM15:int_s.
Notice from spectre at time = 100.004 ns during transient analysis `trans-000_trans', during task `MDLControl'.
    Found trapezoidal ringing on node I12.NM15:int_s.
Notice from spectre at time = 100.005 ns during transient analysis `trans-000_trans', during task `MDLControl'.
    Found trapezoidal ringing on node I12.NM15:int_s.
Notice from spectre at time = 100.008 ns during transient analysis `trans-000_trans', during task `MDLControl'.
    Found trapezoidal ringing on node I12.NM15:int_s.
        Further occurrences of this notice will be suppressed.

......9......8......7......6......5......4......3......2......1......0
Number of accepted tran steps =             479

Notice from spectre during transient analysis `trans-000_trans', during task `MDLControl'.
    Trapezoidal ringing is detected during tran analysis.
        Please use method=trap for better results and performance.


Maximum value achieved for any signal of each quantity: 
V: V(I12.PM26:int_d) = 366.6 mV
I: I(V0:p) = 195.2 uA
If your circuit contains signals of the same quantity that are vastly different in size (such as high voltage circuitry combined with low voltage control circuitry), you should consider specifying global option `bin_relref=yes'.

~~~~~~~~~~~~~~~~~~~~~~~~~~~~~~~~~
Post-Transient Simulation Summary
~~~~~~~~~~~~~~~~~~~~~~~~~~~~~~~~~
   -   To further speed up simulation, consider
          add ++aps on command line
~~~~~~~~~~~~~~~~~~~~~~~~~~~~~~~~~


During simulation, the CPU load for active processors is :
         0 (53.7 %)      1 (48.4 %)      2 (16.6 %)      3 (9.5 %)
        Total: 128.2%
Initial condition solution time: CPU = 1.999 ms, elapsed = 2.03991 ms.
Intrinsic tran analysis time:    CPU = 201.969 ms, elapsed = 241.675 ms.
Total time required for tran analysis `trans-000_trans': CPU = 205.968 ms, elapsed = 246.526 ms.
Time accumulated: CPU = 19.531 s, elapsed = 22.3928 s.
Peak resident memory used = 132 Mbytes.


Notice from spectre during task `MDLControl'.
    86 notices suppressed.
Warning from spectre.
    WARNING (SPECTRE-17101): The value 'psf' specified for the 'checklimitdest' option will no longer be supported in future releases. Use 'spectre -h' to see other recommended values for the 'checklimitdest' option.
    WARNING (SPECTRE-17101): The value 'psf' specified for the 'checklimitdest' option will no longer be supported in future releases. Use 'spectre -h' to see other recommended values for the 'checklimitdest' option.


**********************************************************
Transient Analysis `trans-000_trans': time = (0 s -> 1 us)
**********************************************************

Notice from spectre during IC analysis, during transient analysis `trans-000_trans', during task `MDLControl'.
    GminDC = 1 pS is large enough to noticeably affect the DC solution.
        dV(I12.PM26:int_d) = 80.8424 uV
        Use the `gmin_check' option to eliminate or expand this report.

DC simulation time: CPU = 3 ms, elapsed = 2.95591 ms.

Opening the PSFXL file ./input.raw/trans-000_trans.tran.tran ...
Important parameter values:
    start = 0 s
    outputstart = 0 s
    stop = 1 us
    step = 1 ns
    maxstep = 20 ns
    ic = all
    useprevic = no
    skipdc = no
    reltol = 1e-03
    abstol(V) = 1 uV
    abstol(I) = 1 pA
    temp = 27 C
    tnom = 27 C
    tempeffects = all
    errpreset = moderate
    method = traponly
    lteratio = 3.5
    relref = sigglobal
    cmin = 0 F
    gmin = 1 pS


Output and IC/nodeset summary:
                 save   1       (current)
                 save   18      (voltage)

......9

Notice from spectre at time = 100.002 ns during transient analysis `trans-000_trans', during task `MDLControl'.
    Found trapezoidal ringing on node I12.NM15:int_s.
Notice from spectre at time = 100.003 ns during transient analysis `trans-000_trans', during task `MDLControl'.
    Found trapezoidal ringing on node I12.NM15:int_s.
Notice from spectre at time = 100.004 ns during transient analysis `trans-000_trans', during task `MDLControl'.
    Found trapezoidal ringing on node I12.NM15:int_s.
Notice from spectre at time = 100.005 ns during transient analysis `trans-000_trans', during task `MDLControl'.
    Found trapezoidal ringing on node I12.NM15:int_s.
Notice from spectre at time = 100.008 ns during transient analysis `trans-000_trans', during task `MDLControl'.
    Found trapezoidal ringing on node I12.NM15:int_s.
        Further occurrences of this notice will be suppressed.

......9......8......7......6......5......4......3......2......1......0
Number of accepted tran steps =             452

Notice from spectre during transient analysis `trans-000_trans', during task `MDLControl'.
    Trapezoidal ringing is detected during tran analysis.
        Please use method=trap for better results and performance.


Maximum value achieved for any signal of each quantity: 
V: V(I12.PM26:int_d) = 366.6 mV
I: I(V0:p) = 195.3 uA
If your circuit contains signals of the same quantity that are vastly different in size (such as high voltage circuitry combined with low voltage control circuitry), you should consider specifying global option `bin_relref=yes'.

~~~~~~~~~~~~~~~~~~~~~~~~~~~~~~~~~
Post-Transient Simulation Summary
~~~~~~~~~~~~~~~~~~~~~~~~~~~~~~~~~
   -   To further speed up simulation, consider
          add ++aps on command line
~~~~~~~~~~~~~~~~~~~~~~~~~~~~~~~~~


During simulation, the CPU load for active processors is :
         0 (53.4 %)      1 (48.8 %)      2 (16.6 %)      3 (9.4 %)
        Total: 128.1%
Initial condition solution time: CPU = 3 ms, elapsed = 2.99597 ms.
Intrinsic tran analysis time:    CPU = 183.972 ms, elapsed = 213.516 ms.
Total time required for tran analysis `trans-000_trans': CPU = 188.972 ms, elapsed = 219.134 ms.
Time accumulated: CPU = 19.759 s, elapsed = 22.6519 s.
Peak resident memory used = 132 Mbytes.


Notice from spectre during task `MDLControl'.
    79 notices suppressed.


**********************************************************
Transient Analysis `trans-000_trans': time = (0 s -> 1 us)
**********************************************************

Notice from spectre during IC analysis, during transient analysis `trans-000_trans', during task `MDLControl'.
    GminDC = 1 pS is large enough to noticeably affect the DC solution.
        dV(I12.PM26:int_d) = 80.8424 uV
        Use the `gmin_check' option to eliminate or expand this report.

DC simulation time: CPU = 2.999 ms, elapsed = 3.05891 ms.

Opening the PSFXL file ./input.raw/trans-000_trans.tran.tran ...
Important parameter values:
    start = 0 s
    outputstart = 0 s
    stop = 1 us
    step = 1 ns
    maxstep = 20 ns
    ic = all
    useprevic = no
    skipdc = no
    reltol = 1e-03
    abstol(V) = 1 uV
    abstol(I) = 1 pA
    temp = 27 C
    tnom = 27 C
    tempeffects = all
    errpreset = moderate
    method = traponly
    lteratio = 3.5
    relref = sigglobal
    cmin = 0 F
    gmin = 1 pS


Output and IC/nodeset summary:
                 save   1       (current)
                 save   18      (voltage)

......9

Notice from spectre at time = 100.002 ns during transient analysis `trans-000_trans', during task `MDLControl'.
    Found trapezoidal ringing on node I12.NM15:int_s.
Notice from spectre at time = 100.003 ns during transient analysis `trans-000_trans', during task `MDLControl'.
    Found trapezoidal ringing on node I12.NM15:int_s.
Notice from spectre at time = 100.004 ns during transient analysis `trans-000_trans', during task `MDLControl'.
    Found trapezoidal ringing on node I12.NM15:int_s.
Notice from spectre at time = 100.005 ns during transient analysis `trans-000_trans', during task `MDLControl'.
    Found trapezoidal ringing on node I12.NM15:int_s.
Notice from spectre at time = 100.008 ns during transient analysis `trans-000_trans', during task `MDLControl'.
    Found trapezoidal ringing on node I12.NM15:int_s.
        Further occurrences of this notice will be suppressed.

......9......8......7......6......5......4......3......2......1......0
Number of accepted tran steps =             452

Notice from spectre during transient analysis `trans-000_trans', during task `MDLControl'.
    Trapezoidal ringing is detected during tran analysis.
        Please use method=trap for better results and performance.


Maximum value achieved for any signal of each quantity: 
V: V(I12.PM26:int_d) = 366.6 mV
I: I(V0:p) = 195.3 uA
If your circuit contains signals of the same quantity that are vastly different in size (such as high voltage circuitry combined with low voltage control circuitry), you should consider specifying global option `bin_relref=yes'.

~~~~~~~~~~~~~~~~~~~~~~~~~~~~~~~~~
Post-Transient Simulation Summary
~~~~~~~~~~~~~~~~~~~~~~~~~~~~~~~~~
   -   To further speed up simulation, consider
          add ++aps on command line
~~~~~~~~~~~~~~~~~~~~~~~~~~~~~~~~~


During simulation, the CPU load for active processors is :
         0 (53.7 %)      1 (48.5 %)      2 (16.6 %)      3 (9.5 %)
        Total: 128.4%
Initial condition solution time: CPU = 2.999 ms, elapsed = 3.09992 ms.
Intrinsic tran analysis time:    CPU = 183.973 ms, elapsed = 217.034 ms.
Total time required for tran analysis `trans-000_trans': CPU = 189.971 ms, elapsed = 222.553 ms.
Time accumulated: CPU = 19.95 s, elapsed = 22.8766 s.
Peak resident memory used = 132 Mbytes.


Notice from spectre during task `MDLControl'.
    79 notices suppressed.


Aggregate audit (3:19:44 PM, Mon Dec 27, 2021):
Time used: CPU = 20 s, elapsed = 23 s, util. = 87%.
Time spent in licensing: elapsed = 242 ms.
Peak memory used = 132 Mbytes.
Simulation started at: 3:19:21 PM, Mon Dec 27, 2021, ended at: 3:19:44 PM, Mon Dec 27, 2021, with elapsed time (wall clock): 23 s.
spectre completes with 0 errors, 172 warnings, and 594 notices.
