
Spectre (R) Circuit Simulator
Version 19.1.0.396.isr8 64bit -- 19 Jun 2020
Copyright (C) 1989-2020 Cadence Design Systems, Inc. All rights reserved worldwide. Cadence and Spectre are registered trademarks of Cadence Design Systems, Inc. All others are the property of their respective holders.

Includes RSA BSAFE(R) Cryptographic or Security Protocol Software from RSA Security, Inc.

User: VLSI_ANALOG   Host: cad19   HostID: 7F0100   PID: 29011
Memory  available: 304.7669 MB  physical: 3.9726 GB
Linux   : Red Hat Enterprise Linux Server release 6.9 (Santiago)
CPU Type: Intel(R) Core(TM) i5-2320 CPU @ 3.00GHz
All processors running at 1600.0 MHz
        Socket: Processors
        0:       0,  1,  2,  3
        
System load averages (1min, 5min, 15min) : 11.0 %, 8.0 %, 4.5 %


Simulating `./input.scs' on cad19 at 9:26:23 AM, Tue Dec 21, 2021 (process id: 29011).
Current working directory: /home/VLSI_ANALOG/UMC180/Designkits/Cadence_6.1/lowpower28/spectremdl/new/inv
Command line:
    /home/installs/SPECTRE191/tools.lnx86/bin/spectre -64 =mdl  \
        input.mdl ./input.scs

Loading /home/installs/SPECTRE191/tools.lnx86/cmi/lib/64bit/5.0/libinfineon_sh.so ...
Loading /home/installs/SPECTRE191/tools.lnx86/cmi/lib/64bit/5.0/libphilips_o_sh.so ...
Loading /home/installs/SPECTRE191/tools.lnx86/cmi/lib/64bit/5.0/libphilips_sh.so ...
Loading /home/installs/SPECTRE191/tools.lnx86/cmi/lib/64bit/5.0/libsparam_sh.so ...
Loading /home/installs/SPECTRE191/tools.lnx86/cmi/lib/64bit/5.0/libstmodels_sh.so ...
Loading /home/installs/SPECTRE191/tools.lnx86/spectre/lib/64bit/mdl/libSpectreEH_sh.so ...
Reading file:  /home/VLSI_ANALOG/UMC180/Designkits/Cadence_6.1/lowpower28/spectremdl/new/inv/input.mdl
Reading file:  /home/VLSI_ANALOG/UMC180/Designkits/Cadence_6.1/lowpower28/spectremdl/new/inv/input.scs
Reading file:  /home/installs/SPECTRE191/tools.lnx86/spectre/etc/configs/spectre.cfg
Reading file:  /home/VLSI_ANALOG/UMCLib/pdk/UMC/28/_G-01-LOGIC_MIXED_MODE28N-HPC/Designkits/Cadence_IC6/G-9FD-LOGIC_MIXED_MODE28N-HPC_UM028FDKHCC0000OA-FDK-Ver.A14_PB/UM028FDKHCC0000OA_A14_DESIGNKIT/UM028FDKHCC0000OA_A14_PB/Models/Spectre/l28hpc_mm_v1201.lib.scs
Reading file:  /home/VLSI_ANALOG/UMCLib/pdk/UMC/28/_G-01-LOGIC_MIXED_MODE28N-HPC/Designkits/Cadence_IC6/G-9FD-LOGIC_MIXED_MODE28N-HPC_UM028FDKHCC0000OA-FDK-Ver.A14_PB/UM028FDKHCC0000OA_A14_DESIGNKIT/UM028FDKHCC0000OA_A14_PB/Models/Spectre/l28hpc_rf_v017.lib.scs
Time for NDB Parsing: CPU = 4.6143 s, elapsed = 4.88588 s.
Time accumulated: CPU = 4.78427 s, elapsed = 4.88589 s.
Peak resident memory used = 209 Mbytes.


Warning from spectre during hierarchy flattening.
    WARNING (SFE-1131): Scope option `scalefactor' specified with scope `TopCircuit' at line `680' has also been specified at line `729' in file `/home/VLSI_ANALOG/UMCLib/pdk/UMC/28/_G-01-LOGIC_MIXED_MODE28N-HPC/Designkits/Cadence_IC6/G-9FD-LOGIC_MIXED_MODE28N-HPC_UM028FDKHCC0000OA-FDK-Ver.A14_PB/UM028FDKHCC0000OA_A14_DESIGNKIT/UM028FDKHCC0000OA_A14_PB/umc28hpc/../Models/Spectre/l28hpc_rf_v017.lib.scs'. As a result, the last specified value will be used for simulation.

Time for Elaboration: CPU = 65.99 ms, elapsed = 65.4111 ms.
Time accumulated: CPU = 4.85026 s, elapsed = 4.95148 s.
Peak resident memory used = 222 Mbytes.


Warning from spectre during hierarchy flattening.
    WARNING (SPECTRE-17101): The value 'psf' specified for the 'checklimitdest' option will no longer be supported in future releases. Use 'spectre -h' to see other recommended values for the 'checklimitdest' option.


Time for EDB Visiting: CPU = 1 ms, elapsed = 993.013 us.
Time accumulated: CPU = 4.85126 s, elapsed = 4.95265 s.
Peak resident memory used = 223 Mbytes.


Global user options:
         psfversion = 1.4.0
            vabstol = 1e-06
            iabstol = 1e-12
               temp = 27
               gmin = 1e-12
             rforce = 1
           maxnotes = 5
           maxwarns = 5
             digits = 5
               cols = 80
             pivrel = 0.001
           sensfile = ../psf/sens.output
     checklimitdest = psf
               save = all
                pwr = all
        scalefactor = 0.9
             reltol = 0.001
               tnom = 27
             scalem = 1
              scale = 1

Scoped user options:

Circuit inventory:
              nodes 3
              bsim4 2     
          capacitor 1     
              diode 1     
            vsource 2     

Analysis and control statement inventory:
                 dc 2     
               info 8     
               tran 1     

Output statements:
             .probe 0     
           .measure 0     
               save 0     

Time for parsing: CPU = 2.999 ms, elapsed = 66.797 ms.
Time accumulated: CPU = 4.85426 s, elapsed = 5.01957 s.
Peak resident memory used = 225 Mbytes.

~~~~~~~~~~~~~~~~~~~~~~
Pre-Simulation Summary
~~~~~~~~~~~~~~~~~~~~~~
~~~~~~~~~~~~~~~~~~~~~~

**************************************************
Transient Analysis `trans': time = (0 s -> 500 ns)
**************************************************
DC simulation time: CPU = 1 ms, elapsed = 881.91 us.

Opening the PSFXL file ./input.raw/trans.tran.tran ...
Important parameter values:
    start = 0 s
    outputstart = 0 s
    stop = 500 ns
    step = 500 ps
    maxstep = 10 ns
    ic = all
    useprevic = no
    skipdc = no
    reltol = 1e-03
    abstol(V) = 1 uV
    abstol(I) = 1 pA
    temp = 27 C
    tnom = 27 C
    tempeffects = all
    errpreset = moderate
    method = traponly
    lteratio = 3.5
    relref = sigglobal
    cmin = 0 F
    gmin = 1 pS


Output and IC/nodeset summary:
                 save   2       (current)
                 save   10      (voltage)
                 others 5       


Notice from spectre at time = 218.762 ps during transient analysis `trans', during task `MDLControl'.
    Found trapezoidal ringing on node I23.NM0:int_g.
Notice from spectre at time = 270.197 ps during transient analysis `trans', during task `MDLControl'.
    Found trapezoidal ringing on node I23.NM0:int_g.
Notice from spectre at time = 346.403 ps during transient analysis `trans', during task `MDLControl'.
    Found trapezoidal ringing on node I23.NM0:int_g.
Notice from spectre at time = 459.536 ps during transient analysis `trans', during task `MDLControl'.
    Found trapezoidal ringing on node I23.NM0:int_g.
Notice from spectre at time = 481.603 ps during transient analysis `trans', during task `MDLControl'.
    Found trapezoidal ringing on node I23.NM0:int_g.
        Further occurrences of this notice will be suppressed.

......9......8......7......6......5......4......3......2......1......0
Number of accepted tran steps =             173

Notice from spectre during transient analysis `trans', during task `MDLControl'.
    Trapezoidal ringing is detected during tran analysis.
        Please use method=trap for better results and performance.


Maximum value achieved for any signal of each quantity: 
V: V(I23.PM2:int_d) = 316.2 mV
I: I(V2:p) = 10.24 uA
If your circuit contains signals of the same quantity that are vastly different in size (such as high voltage circuitry combined with low voltage control circuitry), you should consider specifying global option `bin_relref=yes'.

~~~~~~~~~~~~~~~~~~~~~~~~~~~~~~~~~
Post-Transient Simulation Summary
~~~~~~~~~~~~~~~~~~~~~~~~~~~~~~~~~
   -   To further speed up simulation, consider
          add ++aps on command line
~~~~~~~~~~~~~~~~~~~~~~~~~~~~~~~~~


During simulation, the CPU load for active processors is :
         0 (2.4 %)       1 (93.6 %)      2 (2.2 %)      
        Total: 98.6%
Initial condition solution time: CPU = 1 ms, elapsed = 980.139 us.
Intrinsic tran analysis time:    CPU = 25.996 ms, elapsed = 67.693 ms.
Total time required for tran analysis `trans': CPU = 31.995 ms, elapsed = 74.0869 ms.
Time accumulated: CPU = 4.89325 s, elapsed = 5.10052 s.
Peak resident memory used = 229 Mbytes.


Notice from spectre during task `MDLControl'.
    101 notices suppressed.


******************************************
DC Analysis `dcs': V2:dc = (0 V -> 300 mV)
******************************************

Opening the PSF file ./input.raw/dcs.dc ...
Important parameter values:
    reltol = 1e-03
    abstol(V) = 1 uV
    abstol(I) = 1 pA
    temp = 27 C
    tnom = 27 C
    tempeffects = all
    gmindc = 1 pS
    dcs: dc = 12 mV          (4 %), step = 6 mV            (2 %)
    dcs: dc = 18 mV          (6 %), step = 6 mV            (2 %)
    dcs: dc = 24 mV          (8 %), step = 6 mV            (2 %)
    dcs: dc = 30 mV         (10 %), step = 6 mV            (2 %)
    dcs: dc = 36 mV         (12 %), step = 6 mV            (2 %)
    dcs: dc = 42 mV         (14 %), step = 6 mV            (2 %)
    dcs: dc = 48 mV         (16 %), step = 6 mV            (2 %)
    dcs: dc = 54 mV         (18 %), step = 6 mV            (2 %)
    dcs: dc = 60 mV         (20 %), step = 6 mV            (2 %)
    dcs: dc = 66 mV         (22 %), step = 6 mV            (2 %)
    dcs: dc = 72 mV         (24 %), step = 6 mV            (2 %)
    dcs: dc = 78 mV         (26 %), step = 6 mV            (2 %)
    dcs: dc = 84 mV         (28 %), step = 6 mV            (2 %)
    dcs: dc = 90 mV         (30 %), step = 6 mV            (2 %)
    dcs: dc = 96 mV         (32 %), step = 6 mV            (2 %)
    dcs: dc = 102 mV        (34 %), step = 6 mV            (2 %)
    dcs: dc = 108 mV        (36 %), step = 6 mV            (2 %)
    dcs: dc = 114 mV        (38 %), step = 6 mV            (2 %)
    dcs: dc = 120 mV        (40 %), step = 6 mV            (2 %)
    dcs: dc = 126 mV        (42 %), step = 6 mV            (2 %)
    dcs: dc = 132 mV        (44 %), step = 6 mV            (2 %)
    dcs: dc = 138 mV        (46 %), step = 6 mV            (2 %)
    dcs: dc = 144 mV        (48 %), step = 6 mV            (2 %)
    dcs: dc = 150 mV        (50 %), step = 6 mV            (2 %)
    dcs: dc = 156 mV        (52 %), step = 6 mV            (2 %)
    dcs: dc = 162 mV        (54 %), step = 6 mV            (2 %)
    dcs: dc = 168 mV        (56 %), step = 6 mV            (2 %)
    dcs: dc = 174 mV        (58 %), step = 6 mV            (2 %)
    dcs: dc = 180 mV        (60 %), step = 6 mV            (2 %)
    dcs: dc = 186 mV        (62 %), step = 6 mV            (2 %)
    dcs: dc = 192 mV        (64 %), step = 6 mV            (2 %)
    dcs: dc = 198 mV        (66 %), step = 6 mV            (2 %)
    dcs: dc = 204 mV        (68 %), step = 6 mV            (2 %)
    dcs: dc = 210 mV        (70 %), step = 6 mV            (2 %)
    dcs: dc = 216 mV        (72 %), step = 6 mV            (2 %)
    dcs: dc = 222 mV        (74 %), step = 6 mV            (2 %)
    dcs: dc = 228 mV        (76 %), step = 6 mV            (2 %)
    dcs: dc = 234 mV        (78 %), step = 6 mV            (2 %)
    dcs: dc = 240 mV        (80 %), step = 6 mV            (2 %)
    dcs: dc = 246 mV        (82 %), step = 6 mV            (2 %)
    dcs: dc = 252 mV        (84 %), step = 6 mV            (2 %)
    dcs: dc = 258 mV        (86 %), step = 6 mV            (2 %)
    dcs: dc = 264 mV        (88 %), step = 6 mV            (2 %)
    dcs: dc = 270 mV        (90 %), step = 6 mV            (2 %)
    dcs: dc = 276 mV        (92 %), step = 6 mV            (2 %)
    dcs: dc = 282 mV        (94 %), step = 6 mV            (2 %)
    dcs: dc = 288 mV        (96 %), step = 6 mV            (2 %)
    dcs: dc = 294 mV        (98 %), step = 6 mV            (2 %)
    dcs: dc = 300 mV       (100 %), step = 6 mV            (2 %)

Maximum value achieved for any signal of each quantity: 
V: V(IN) = 300 mV
I: I(V0:p) = 37.08 pA
DC simulation time: CPU = 15.997 ms, elapsed = 45.8951 ms.

Notice from spectre at dc = 300 mV during DC analysis `dcs', during task `MDLControl'.
    The value of parameter 'dc' has been reset to the original value 0.

Total time required for dc analysis `dcs': CPU = 15.997 ms, elapsed = 45.939 ms.
Time accumulated: CPU = 4.91125 s, elapsed = 5.18378 s.
Peak resident memory used = 229 Mbytes.


Warning from spectre.
    WARNING (SPECTRE-17101): The value 'psf' specified for the 'checklimitdest' option will no longer be supported in future releases. Use 'spectre -h' to see other recommended values for the 'checklimitdest' option.
    WARNING (SPECTRE-17101): The value 'psf' specified for the 'checklimitdest' option will no longer be supported in future releases. Use 'spectre -h' to see other recommended values for the 'checklimitdest' option.
    WARNING (SPECTRE-17101): The value 'psf' specified for the 'checklimitdest' option will no longer be supported in future releases. Use 'spectre -h' to see other recommended values for the 'checklimitdest' option.
    WARNING (SPECTRE-17101): The value 'psf' specified for the 'checklimitdest' option will no longer be supported in future releases. Use 'spectre -h' to see other recommended values for the 'checklimitdest' option.


Opening the PSF file ./input.raw/trans.optimize ...

************************************************************
Transient Analysis `trans-000_trans': time = (0 s -> 500 ns)
************************************************************
DC simulation time: CPU = 0 s, elapsed = 562.191 us.

Opening the PSFXL file ./input.raw/trans-000_trans.tran.tran ...
Important parameter values:
    start = 0 s
    outputstart = 0 s
    stop = 500 ns
    step = 500 ps
    maxstep = 10 ns
    ic = all
    useprevic = no
    skipdc = no
    reltol = 1e-03
    abstol(V) = 1 uV
    abstol(I) = 1 pA
    temp = 27 C
    tnom = 27 C
    tempeffects = all
    errpreset = moderate
    method = traponly
    lteratio = 3.5
    relref = sigglobal
    cmin = 0 F
    gmin = 1 pS


Output and IC/nodeset summary:
                 save   2       (current)
                 save   10      (voltage)
                 others 5       


Notice from spectre at time = 242.16 ps during transient analysis `trans-000_trans', during task `MDLControl'.
    Found trapezoidal ringing on node I23.PM2:int_g.
Notice from spectre at time = 316.755 ps during transient analysis `trans-000_trans', during task `MDLControl'.
    Found trapezoidal ringing on node I23.PM2:int_g.
Notice from spectre at time = 433.707 ps during transient analysis `trans-000_trans', during task `MDLControl'.
    Found trapezoidal ringing on node I23.PM2:int_g.
Notice from spectre at time = 615.67 ps during transient analysis `trans-000_trans', during task `MDLControl'.
    Found trapezoidal ringing on node I23.PM2:int_g.
Notice from spectre at time = 899.554 ps during transient analysis `trans-000_trans', during task `MDLControl'.
    Found trapezoidal ringing on node I23.PM2:int_g.
        Further occurrences of this notice will be suppressed.

......9......8......7......6......5......4......3......2......1......0
Number of accepted tran steps =             175

Notice from spectre during transient analysis `trans-000_trans', during task `MDLControl'.
    Trapezoidal ringing is detected during tran analysis.
        Please use method=trap for better results and performance.


Maximum value achieved for any signal of each quantity: 
V: V(I23.PM2:int_d) = 308 mV
I: I(V2:p) = 4.026 uA
If your circuit contains signals of the same quantity that are vastly different in size (such as high voltage circuitry combined with low voltage control circuitry), you should consider specifying global option `bin_relref=yes'.

~~~~~~~~~~~~~~~~~~~~~~~~~~~~~~~~~
Post-Transient Simulation Summary
~~~~~~~~~~~~~~~~~~~~~~~~~~~~~~~~~
   -   To further speed up simulation, consider
          add ++aps on command line
~~~~~~~~~~~~~~~~~~~~~~~~~~~~~~~~~


During simulation, the CPU load for active processors is :
         0 (4.9 %)       1 (88.4 %)      2 (2.1 %)      
        Total: 95.7%
Initial condition solution time: CPU = 0 s, elapsed = 642.776 us.
Intrinsic tran analysis time:    CPU = 24.997 ms, elapsed = 54.635 ms.
Total time required for tran analysis `trans-000_trans': CPU = 27.996 ms, elapsed = 57.8852 ms.
Time accumulated: CPU = 5.01524 s, elapsed = 5.40603 s.
Peak resident memory used = 229 Mbytes.


Notice from spectre during task `MDLControl'.
    96 notices suppressed.


Opening the PSF file ./input.raw/dcs.optimize ...

**************************************************
DC Analysis `dcs-000_dcs': V2:dc = (0 V -> 300 mV)
**************************************************

Opening the PSF file ./input.raw/dcs-000_dcs.dc ...
Important parameter values:
    reltol = 1e-03
    abstol(V) = 1 uV
    abstol(I) = 1 pA
    temp = 27 C
    tnom = 27 C
    tempeffects = all
    gmindc = 1 pS
    dcs-000_dcs: dc = 12 mV          (4 %), step = 6 mV            (2 %)
    dcs-000_dcs: dc = 18 mV          (6 %), step = 6 mV            (2 %)
    dcs-000_dcs: dc = 24 mV          (8 %), step = 6 mV            (2 %)
    dcs-000_dcs: dc = 30 mV         (10 %), step = 6 mV            (2 %)
    dcs-000_dcs: dc = 36 mV         (12 %), step = 6 mV            (2 %)
    dcs-000_dcs: dc = 42 mV         (14 %), step = 6 mV            (2 %)
    dcs-000_dcs: dc = 48 mV         (16 %), step = 6 mV            (2 %)
    dcs-000_dcs: dc = 54 mV         (18 %), step = 6 mV            (2 %)
    dcs-000_dcs: dc = 60 mV         (20 %), step = 6 mV            (2 %)
    dcs-000_dcs: dc = 66 mV         (22 %), step = 6 mV            (2 %)
    dcs-000_dcs: dc = 72 mV         (24 %), step = 6 mV            (2 %)
    dcs-000_dcs: dc = 78 mV         (26 %), step = 6 mV            (2 %)
    dcs-000_dcs: dc = 84 mV         (28 %), step = 6 mV            (2 %)
    dcs-000_dcs: dc = 90 mV         (30 %), step = 6 mV            (2 %)
    dcs-000_dcs: dc = 96 mV         (32 %), step = 6 mV            (2 %)
    dcs-000_dcs: dc = 102 mV        (34 %), step = 6 mV            (2 %)
    dcs-000_dcs: dc = 108 mV        (36 %), step = 6 mV            (2 %)
    dcs-000_dcs: dc = 114 mV        (38 %), step = 6 mV            (2 %)
    dcs-000_dcs: dc = 120 mV        (40 %), step = 6 mV            (2 %)
    dcs-000_dcs: dc = 126 mV        (42 %), step = 6 mV            (2 %)
    dcs-000_dcs: dc = 132 mV        (44 %), step = 6 mV            (2 %)
    dcs-000_dcs: dc = 138 mV        (46 %), step = 6 mV            (2 %)
    dcs-000_dcs: dc = 144 mV        (48 %), step = 6 mV            (2 %)
    dcs-000_dcs: dc = 150 mV        (50 %), step = 6 mV            (2 %)
    dcs-000_dcs: dc = 156 mV        (52 %), step = 6 mV            (2 %)
    dcs-000_dcs: dc = 162 mV        (54 %), step = 6 mV            (2 %)
    dcs-000_dcs: dc = 168 mV        (56 %), step = 6 mV            (2 %)
    dcs-000_dcs: dc = 174 mV        (58 %), step = 6 mV            (2 %)
    dcs-000_dcs: dc = 180 mV        (60 %), step = 6 mV            (2 %)
    dcs-000_dcs: dc = 186 mV        (62 %), step = 6 mV            (2 %)
    dcs-000_dcs: dc = 192 mV        (64 %), step = 6 mV            (2 %)
    dcs-000_dcs: dc = 198 mV        (66 %), step = 6 mV            (2 %)
    dcs-000_dcs: dc = 204 mV        (68 %), step = 6 mV            (2 %)
    dcs-000_dcs: dc = 210 mV        (70 %), step = 6 mV            (2 %)
    dcs-000_dcs: dc = 216 mV        (72 %), step = 6 mV            (2 %)
    dcs-000_dcs: dc = 222 mV        (74 %), step = 6 mV            (2 %)
    dcs-000_dcs: dc = 228 mV        (76 %), step = 6 mV            (2 %)
    dcs-000_dcs: dc = 234 mV        (78 %), step = 6 mV            (2 %)
    dcs-000_dcs: dc = 240 mV        (80 %), step = 6 mV            (2 %)
    dcs-000_dcs: dc = 246 mV        (82 %), step = 6 mV            (2 %)
    dcs-000_dcs: dc = 252 mV        (84 %), step = 6 mV            (2 %)
    dcs-000_dcs: dc = 258 mV        (86 %), step = 6 mV            (2 %)
    dcs-000_dcs: dc = 264 mV        (88 %), step = 6 mV            (2 %)
    dcs-000_dcs: dc = 270 mV        (90 %), step = 6 mV            (2 %)
    dcs-000_dcs: dc = 276 mV        (92 %), step = 6 mV            (2 %)
    dcs-000_dcs: dc = 282 mV        (94 %), step = 6 mV            (2 %)
    dcs-000_dcs: dc = 288 mV        (96 %), step = 6 mV            (2 %)
    dcs-000_dcs: dc = 294 mV        (98 %), step = 6 mV            (2 %)
    dcs-000_dcs: dc = 300 mV       (100 %), step = 6 mV            (2 %)

Maximum value achieved for any signal of each quantity: 
V: V(IN) = 300 mV
I: I(V0:p) = 1.075 nA
DC simulation time: CPU = 13.998 ms, elapsed = 43.282 ms.

Notice from spectre at dc = 300 mV during DC analysis `dcs-000_dcs', during task `MDLControl'.
    The value of parameter 'dc' has been reset to the original value 0.

Total time required for dc analysis `dcs-000_dcs': CPU = 13.998 ms, elapsed = 43.328 ms.
Time accumulated: CPU = 5.03523 s, elapsed = 5.52617 s.
Peak resident memory used = 230 Mbytes.


Warning from spectre.
    WARNING (SFE-421): Undefined parameter name `dcs'.
    WARNING (MDL-1565): validate object failure -- parameter or terminal 'dcs' not found in specified scope.
    WARNING (MDL-1101): line `78': MDL expression for identifier 'tmp3' can not be evaluated due to previous errors.
    WARNING (SPECTRE-17101): The value 'psf' specified for the 'checklimitdest' option will no longer be supported in future releases. Use 'spectre -h' to see other recommended values for the 'checklimitdest' option.


************************************************************
Transient Analysis `trans-000_trans': time = (0 s -> 500 ns)
************************************************************
DC simulation time: CPU = 1 ms, elapsed = 393.867 us.

Opening the PSFXL file ./input.raw/trans-000_trans.tran.tran ...
Important parameter values:
    start = 0 s
    outputstart = 0 s
    stop = 500 ns
    step = 500 ps
    maxstep = 10 ns
    ic = all
    useprevic = no
    skipdc = no
    reltol = 1e-03
    abstol(V) = 1 uV
    abstol(I) = 1 pA
    temp = 27 C
    tnom = 27 C
    tempeffects = all
    errpreset = moderate
    method = traponly
    lteratio = 3.5
    relref = sigglobal
    cmin = 0 F
    gmin = 1 pS


Output and IC/nodeset summary:
                 save   2       (current)
                 save   10      (voltage)
                 others 5       


Notice from spectre at time = 237.44 ps during transient analysis `trans-000_trans', during task `MDLControl'.
    Found trapezoidal ringing on node I23.PM2:int_g.
Notice from spectre at time = 307.705 ps during transient analysis `trans-000_trans', during task `MDLControl'.
    Found trapezoidal ringing on node I23.PM2:int_g.
Notice from spectre at time = 416.973 ps during transient analysis `trans-000_trans', during task `MDLControl'.
    Found trapezoidal ringing on node I23.PM2:int_g.
Notice from spectre at time = 585.747 ps during transient analysis `trans-000_trans', during task `MDLControl'.
    Found trapezoidal ringing on node I23.PM2:int_g.
Notice from spectre at time = 847.196 ps during transient analysis `trans-000_trans', during task `MDLControl'.
    Found trapezoidal ringing on node I23.PM2:int_g.
        Further occurrences of this notice will be suppressed.

......9......8......7......6......5......4......3......2......1......0
Number of accepted tran steps =             175

Notice from spectre during transient analysis `trans-000_trans', during task `MDLControl'.
    Trapezoidal ringing is detected during tran analysis.
        Please use method=trap for better results and performance.


Maximum value achieved for any signal of each quantity: 
V: V(I23.PM2:int_d) = 308.2 mV
I: I(V2:p) = 4.139 uA
If your circuit contains signals of the same quantity that are vastly different in size (such as high voltage circuitry combined with low voltage control circuitry), you should consider specifying global option `bin_relref=yes'.

~~~~~~~~~~~~~~~~~~~~~~~~~~~~~~~~~
Post-Transient Simulation Summary
~~~~~~~~~~~~~~~~~~~~~~~~~~~~~~~~~
   -   To further speed up simulation, consider
          add ++aps on command line
~~~~~~~~~~~~~~~~~~~~~~~~~~~~~~~~~


During simulation, the CPU load for active processors is :
         0 (5.4 %)       1 (85.7 %)      2 (2.4 %)      
        Total: 94.2%
Initial condition solution time: CPU = 1 ms, elapsed = 469.208 us.
Intrinsic tran analysis time:    CPU = 22.997 ms, elapsed = 57.868 ms.
Total time required for tran analysis `trans-000_trans': CPU = 26.995 ms, elapsed = 61.419 ms.
Time accumulated: CPU = 5.08123 s, elapsed = 5.60733 s.
Peak resident memory used = 230 Mbytes.


Notice from spectre during task `MDLControl'.
    96 notices suppressed.


**************************************************
DC Analysis `dcs-000_dcs': V2:dc = (0 V -> 300 mV)
**************************************************

Opening the PSF file ./input.raw/dcs-000_dcs.dc ...
Important parameter values:
    reltol = 1e-03
    abstol(V) = 1 uV
    abstol(I) = 1 pA
    temp = 27 C
    tnom = 27 C
    tempeffects = all
    gmindc = 1 pS
    dcs-000_dcs: dc = 12 mV          (4 %), step = 6 mV            (2 %)
    dcs-000_dcs: dc = 18 mV          (6 %), step = 6 mV            (2 %)
    dcs-000_dcs: dc = 24 mV          (8 %), step = 6 mV            (2 %)
    dcs-000_dcs: dc = 30 mV         (10 %), step = 6 mV            (2 %)
    dcs-000_dcs: dc = 36 mV         (12 %), step = 6 mV            (2 %)
    dcs-000_dcs: dc = 42 mV         (14 %), step = 6 mV            (2 %)
    dcs-000_dcs: dc = 48 mV         (16 %), step = 6 mV            (2 %)
    dcs-000_dcs: dc = 54 mV         (18 %), step = 6 mV            (2 %)
    dcs-000_dcs: dc = 60 mV         (20 %), step = 6 mV            (2 %)
    dcs-000_dcs: dc = 66 mV         (22 %), step = 6 mV            (2 %)
    dcs-000_dcs: dc = 72 mV         (24 %), step = 6 mV            (2 %)
    dcs-000_dcs: dc = 78 mV         (26 %), step = 6 mV            (2 %)
    dcs-000_dcs: dc = 84 mV         (28 %), step = 6 mV            (2 %)
    dcs-000_dcs: dc = 90 mV         (30 %), step = 6 mV            (2 %)
    dcs-000_dcs: dc = 96 mV         (32 %), step = 6 mV            (2 %)
    dcs-000_dcs: dc = 102 mV        (34 %), step = 6 mV            (2 %)
    dcs-000_dcs: dc = 108 mV        (36 %), step = 6 mV            (2 %)
    dcs-000_dcs: dc = 114 mV        (38 %), step = 6 mV            (2 %)
    dcs-000_dcs: dc = 120 mV        (40 %), step = 6 mV            (2 %)
    dcs-000_dcs: dc = 126 mV        (42 %), step = 6 mV            (2 %)
    dcs-000_dcs: dc = 132 mV        (44 %), step = 6 mV            (2 %)
    dcs-000_dcs: dc = 138 mV        (46 %), step = 6 mV            (2 %)
    dcs-000_dcs: dc = 144 mV        (48 %), step = 6 mV            (2 %)
    dcs-000_dcs: dc = 150 mV        (50 %), step = 6 mV            (2 %)
    dcs-000_dcs: dc = 156 mV        (52 %), step = 6 mV            (2 %)
    dcs-000_dcs: dc = 162 mV        (54 %), step = 6 mV            (2 %)
    dcs-000_dcs: dc = 168 mV        (56 %), step = 6 mV            (2 %)
    dcs-000_dcs: dc = 174 mV        (58 %), step = 6 mV            (2 %)
    dcs-000_dcs: dc = 180 mV        (60 %), step = 6 mV            (2 %)
    dcs-000_dcs: dc = 186 mV        (62 %), step = 6 mV            (2 %)
    dcs-000_dcs: dc = 192 mV        (64 %), step = 6 mV            (2 %)
    dcs-000_dcs: dc = 198 mV        (66 %), step = 6 mV            (2 %)
    dcs-000_dcs: dc = 204 mV        (68 %), step = 6 mV            (2 %)
    dcs-000_dcs: dc = 210 mV        (70 %), step = 6 mV            (2 %)
    dcs-000_dcs: dc = 216 mV        (72 %), step = 6 mV            (2 %)
    dcs-000_dcs: dc = 222 mV        (74 %), step = 6 mV            (2 %)
    dcs-000_dcs: dc = 228 mV        (76 %), step = 6 mV            (2 %)
    dcs-000_dcs: dc = 234 mV        (78 %), step = 6 mV            (2 %)
    dcs-000_dcs: dc = 240 mV        (80 %), step = 6 mV            (2 %)
    dcs-000_dcs: dc = 246 mV        (82 %), step = 6 mV            (2 %)
    dcs-000_dcs: dc = 252 mV        (84 %), step = 6 mV            (2 %)
    dcs-000_dcs: dc = 258 mV        (86 %), step = 6 mV            (2 %)
    dcs-000_dcs: dc = 264 mV        (88 %), step = 6 mV            (2 %)
    dcs-000_dcs: dc = 270 mV        (90 %), step = 6 mV            (2 %)
    dcs-000_dcs: dc = 276 mV        (92 %), step = 6 mV            (2 %)
    dcs-000_dcs: dc = 282 mV        (94 %), step = 6 mV            (2 %)
    dcs-000_dcs: dc = 288 mV        (96 %), step = 6 mV            (2 %)
    dcs-000_dcs: dc = 294 mV        (98 %), step = 6 mV            (2 %)
    dcs-000_dcs: dc = 300 mV       (100 %), step = 6 mV            (2 %)

Maximum value achieved for any signal of each quantity: 
V: V(IN) = 300 mV
I: I(V0:p) = 1.127 nA
DC simulation time: CPU = 13.999 ms, elapsed = 46.232 ms.

Notice from spectre at dc = 300 mV during DC analysis `dcs-000_dcs', during task `MDLControl'.
    The value of parameter 'dc' has been reset to the original value 0.

Total time required for dc analysis `dcs-000_dcs': CPU = 13.999 ms, elapsed = 46.273 ms.
Time accumulated: CPU = 5.09622 s, elapsed = 5.6542 s.
Peak resident memory used = 230 Mbytes.


Warning from spectre.
    WARNING (SPECTRE-17101): The value 'psf' specified for the 'checklimitdest' option will no longer be supported in future releases. Use 'spectre -h' to see other recommended values for the 'checklimitdest' option.
    WARNING (SPECTRE-17101): The value 'psf' specified for the 'checklimitdest' option will no longer be supported in future releases. Use 'spectre -h' to see other recommended values for the 'checklimitdest' option.


************************************************************
Transient Analysis `trans-000_trans': time = (0 s -> 500 ns)
************************************************************
DC simulation time: CPU = 0 s, elapsed = 314.951 us.

Opening the PSFXL file ./input.raw/trans-000_trans.tran.tran ...
Important parameter values:
    start = 0 s
    outputstart = 0 s
    stop = 500 ns
    step = 500 ps
    maxstep = 10 ns
    ic = all
    useprevic = no
    skipdc = no
    reltol = 1e-03
    abstol(V) = 1 uV
    abstol(I) = 1 pA
    temp = 27 C
    tnom = 27 C
    tempeffects = all
    errpreset = moderate
    method = traponly
    lteratio = 3.5
    relref = sigglobal
    cmin = 0 F
    gmin = 1 pS


Output and IC/nodeset summary:
                 save   2       (current)
                 save   10      (voltage)
                 others 5       


Notice from spectre at time = 242.176 ps during transient analysis `trans-000_trans', during task `MDLControl'.
    Found trapezoidal ringing on node I23.PM2:int_g.
Notice from spectre at time = 316.782 ps during transient analysis `trans-000_trans', during task `MDLControl'.
    Found trapezoidal ringing on node I23.PM2:int_g.
Notice from spectre at time = 433.752 ps during transient analysis `trans-000_trans', during task `MDLControl'.
    Found trapezoidal ringing on node I23.PM2:int_g.
Notice from spectre at time = 615.745 ps during transient analysis `trans-000_trans', during task `MDLControl'.
    Found trapezoidal ringing on node I23.PM2:int_g.
Notice from spectre at time = 899.678 ps during transient analysis `trans-000_trans', during task `MDLControl'.
    Found trapezoidal ringing on node I23.PM2:int_g.
        Further occurrences of this notice will be suppressed.

......9......8......7......6......5......4......3......2......1......0
Number of accepted tran steps =             173

Notice from spectre during transient analysis `trans-000_trans', during task `MDLControl'.
    Trapezoidal ringing is detected during tran analysis.
        Please use method=trap for better results and performance.


Maximum value achieved for any signal of each quantity: 
V: V(I23.PM2:int_d) = 308 mV
I: I(V2:p) = 4.036 uA
If your circuit contains signals of the same quantity that are vastly different in size (such as high voltage circuitry combined with low voltage control circuitry), you should consider specifying global option `bin_relref=yes'.

~~~~~~~~~~~~~~~~~~~~~~~~~~~~~~~~~
Post-Transient Simulation Summary
~~~~~~~~~~~~~~~~~~~~~~~~~~~~~~~~~
   -   To further speed up simulation, consider
          add ++aps on command line
~~~~~~~~~~~~~~~~~~~~~~~~~~~~~~~~~


During simulation, the CPU load for active processors is :
         0 (6.7 %)       1 (84.0 %)      2 (2.5 %)      
        Total: 93.8%
Initial condition solution time: CPU = 0 s, elapsed = 357.866 us.
Intrinsic tran analysis time:    CPU = 27.996 ms, elapsed = 59.232 ms.
Total time required for tran analysis `trans-000_trans': CPU = 29.996 ms, elapsed = 61.8579 ms.
Time accumulated: CPU = 5.16221 s, elapsed = 5.75332 s.
Peak resident memory used = 230 Mbytes.


Notice from spectre during task `MDLControl'.
    92 notices suppressed.


**************************************************
DC Analysis `dcs-000_dcs': V2:dc = (0 V -> 300 mV)
**************************************************

Opening the PSF file ./input.raw/dcs-000_dcs.dc ...
Important parameter values:
    reltol = 1e-03
    abstol(V) = 1 uV
    abstol(I) = 1 pA
    temp = 27 C
    tnom = 27 C
    tempeffects = all
    gmindc = 1 pS
    dcs-000_dcs: dc = 12 mV          (4 %), step = 6 mV            (2 %)
    dcs-000_dcs: dc = 18 mV          (6 %), step = 6 mV            (2 %)
    dcs-000_dcs: dc = 24 mV          (8 %), step = 6 mV            (2 %)
    dcs-000_dcs: dc = 30 mV         (10 %), step = 6 mV            (2 %)
    dcs-000_dcs: dc = 36 mV         (12 %), step = 6 mV            (2 %)
    dcs-000_dcs: dc = 42 mV         (14 %), step = 6 mV            (2 %)
    dcs-000_dcs: dc = 48 mV         (16 %), step = 6 mV            (2 %)
    dcs-000_dcs: dc = 54 mV         (18 %), step = 6 mV            (2 %)
    dcs-000_dcs: dc = 60 mV         (20 %), step = 6 mV            (2 %)
    dcs-000_dcs: dc = 66 mV         (22 %), step = 6 mV            (2 %)
    dcs-000_dcs: dc = 72 mV         (24 %), step = 6 mV            (2 %)
    dcs-000_dcs: dc = 78 mV         (26 %), step = 6 mV            (2 %)
    dcs-000_dcs: dc = 84 mV         (28 %), step = 6 mV            (2 %)
    dcs-000_dcs: dc = 90 mV         (30 %), step = 6 mV            (2 %)
    dcs-000_dcs: dc = 96 mV         (32 %), step = 6 mV            (2 %)
    dcs-000_dcs: dc = 102 mV        (34 %), step = 6 mV            (2 %)
    dcs-000_dcs: dc = 108 mV        (36 %), step = 6 mV            (2 %)
    dcs-000_dcs: dc = 114 mV        (38 %), step = 6 mV            (2 %)
    dcs-000_dcs: dc = 120 mV        (40 %), step = 6 mV            (2 %)
    dcs-000_dcs: dc = 126 mV        (42 %), step = 6 mV            (2 %)
    dcs-000_dcs: dc = 132 mV        (44 %), step = 6 mV            (2 %)
    dcs-000_dcs: dc = 138 mV        (46 %), step = 6 mV            (2 %)
    dcs-000_dcs: dc = 144 mV        (48 %), step = 6 mV            (2 %)
    dcs-000_dcs: dc = 150 mV        (50 %), step = 6 mV            (2 %)
    dcs-000_dcs: dc = 156 mV        (52 %), step = 6 mV            (2 %)
    dcs-000_dcs: dc = 162 mV        (54 %), step = 6 mV            (2 %)
    dcs-000_dcs: dc = 168 mV        (56 %), step = 6 mV            (2 %)
    dcs-000_dcs: dc = 174 mV        (58 %), step = 6 mV            (2 %)
    dcs-000_dcs: dc = 180 mV        (60 %), step = 6 mV            (2 %)
    dcs-000_dcs: dc = 186 mV        (62 %), step = 6 mV            (2 %)
    dcs-000_dcs: dc = 192 mV        (64 %), step = 6 mV            (2 %)
    dcs-000_dcs: dc = 198 mV        (66 %), step = 6 mV            (2 %)
    dcs-000_dcs: dc = 204 mV        (68 %), step = 6 mV            (2 %)
    dcs-000_dcs: dc = 210 mV        (70 %), step = 6 mV            (2 %)
    dcs-000_dcs: dc = 216 mV        (72 %), step = 6 mV            (2 %)
    dcs-000_dcs: dc = 222 mV        (74 %), step = 6 mV            (2 %)
    dcs-000_dcs: dc = 228 mV        (76 %), step = 6 mV            (2 %)
    dcs-000_dcs: dc = 234 mV        (78 %), step = 6 mV            (2 %)
    dcs-000_dcs: dc = 240 mV        (80 %), step = 6 mV            (2 %)
    dcs-000_dcs: dc = 246 mV        (82 %), step = 6 mV            (2 %)
    dcs-000_dcs: dc = 252 mV        (84 %), step = 6 mV            (2 %)
    dcs-000_dcs: dc = 258 mV        (86 %), step = 6 mV            (2 %)
    dcs-000_dcs: dc = 264 mV        (88 %), step = 6 mV            (2 %)
    dcs-000_dcs: dc = 270 mV        (90 %), step = 6 mV            (2 %)
    dcs-000_dcs: dc = 276 mV        (92 %), step = 6 mV            (2 %)
    dcs-000_dcs: dc = 282 mV        (94 %), step = 6 mV            (2 %)
    dcs-000_dcs: dc = 288 mV        (96 %), step = 6 mV            (2 %)
    dcs-000_dcs: dc = 294 mV        (98 %), step = 6 mV            (2 %)
    dcs-000_dcs: dc = 300 mV       (100 %), step = 6 mV            (2 %)

Maximum value achieved for any signal of each quantity: 
V: V(IN) = 300 mV
I: I(V0:p) = 1.075 nA
DC simulation time: CPU = 12.997 ms, elapsed = 41.4879 ms.

Notice from spectre at dc = 300 mV during DC analysis `dcs-000_dcs', during task `MDLControl'.
    The value of parameter 'dc' has been reset to the original value 0.

Total time required for dc analysis `dcs-000_dcs': CPU = 12.997 ms, elapsed = 41.5301 ms.
Time accumulated: CPU = 5.17521 s, elapsed = 5.7954 s.
Peak resident memory used = 230 Mbytes.


Warning from spectre.
    WARNING (SPECTRE-17101): The value 'psf' specified for the 'checklimitdest' option will no longer be supported in future releases. Use 'spectre -h' to see other recommended values for the 'checklimitdest' option.
    WARNING (SPECTRE-17101): The value 'psf' specified for the 'checklimitdest' option will no longer be supported in future releases. Use 'spectre -h' to see other recommended values for the 'checklimitdest' option.


************************************************************
Transient Analysis `trans-000_trans': time = (0 s -> 500 ns)
************************************************************
DC simulation time: CPU = 1 ms, elapsed = 331.879 us.

Opening the PSFXL file ./input.raw/trans-000_trans.tran.tran ...
Important parameter values:
    start = 0 s
    outputstart = 0 s
    stop = 500 ns
    step = 500 ps
    maxstep = 10 ns
    ic = all
    useprevic = no
    skipdc = no
    reltol = 1e-03
    abstol(V) = 1 uV
    abstol(I) = 1 pA
    temp = 27 C
    tnom = 27 C
    tempeffects = all
    errpreset = moderate
    method = traponly
    lteratio = 3.5
    relref = sigglobal
    cmin = 0 F
    gmin = 1 pS


Output and IC/nodeset summary:
                 save   2       (current)
                 save   10      (voltage)
                 others 5       


Notice from spectre at time = 243.673 ps during transient analysis `trans-000_trans', during task `MDLControl'.
    Found trapezoidal ringing on node I23.PM2:int_g.
Notice from spectre at time = 319.707 ps during transient analysis `trans-000_trans', during task `MDLControl'.
    Found trapezoidal ringing on node I23.PM2:int_g.
Notice from spectre at time = 439.243 ps during transient analysis `trans-000_trans', during task `MDLControl'.
    Found trapezoidal ringing on node I23.PM2:int_g.
Notice from spectre at time = 625.688 ps during transient analysis `trans-000_trans', during task `MDLControl'.
    Found trapezoidal ringing on node I23.PM2:int_g.
Notice from spectre at time = 917.268 ps during transient analysis `trans-000_trans', during task `MDLControl'.
    Found trapezoidal ringing on node I23.PM2:int_g.
        Further occurrences of this notice will be suppressed.

......9......8......7......6......5......4......3......2......1......0
Number of accepted tran steps =             171

Notice from spectre during transient analysis `trans-000_trans', during task `MDLControl'.
    Trapezoidal ringing is detected during tran analysis.
        Please use method=trap for better results and performance.


Maximum value achieved for any signal of each quantity: 
V: V(I23.PM2:int_d) = 308 mV
I: I(V2:p) = 4.007 uA
If your circuit contains signals of the same quantity that are vastly different in size (such as high voltage circuitry combined with low voltage control circuitry), you should consider specifying global option `bin_relref=yes'.

~~~~~~~~~~~~~~~~~~~~~~~~~~~~~~~~~
Post-Transient Simulation Summary
~~~~~~~~~~~~~~~~~~~~~~~~~~~~~~~~~
   -   To further speed up simulation, consider
          add ++aps on command line
~~~~~~~~~~~~~~~~~~~~~~~~~~~~~~~~~


During simulation, the CPU load for active processors is :
         0 (7.9 %)       1 (82.1 %)      2 (2.6 %)      
        Total: 93.3%
Initial condition solution time: CPU = 1 ms, elapsed = 376.94 us.
Intrinsic tran analysis time:    CPU = 25.997 ms, elapsed = 59.3688 ms.
Total time required for tran analysis `trans-000_trans': CPU = 27.996 ms, elapsed = 61.9869 ms.
Time accumulated: CPU = 5.2392 s, elapsed = 5.89465 s.
Peak resident memory used = 230 Mbytes.


Notice from spectre during task `MDLControl'.
    92 notices suppressed.


**************************************************
DC Analysis `dcs-000_dcs': V2:dc = (0 V -> 300 mV)
**************************************************

Opening the PSF file ./input.raw/dcs-000_dcs.dc ...
Important parameter values:
    reltol = 1e-03
    abstol(V) = 1 uV
    abstol(I) = 1 pA
    temp = 27 C
    tnom = 27 C
    tempeffects = all
    gmindc = 1 pS
    dcs-000_dcs: dc = 12 mV          (4 %), step = 6 mV            (2 %)
    dcs-000_dcs: dc = 18 mV          (6 %), step = 6 mV            (2 %)
    dcs-000_dcs: dc = 24 mV          (8 %), step = 6 mV            (2 %)
    dcs-000_dcs: dc = 30 mV         (10 %), step = 6 mV            (2 %)
    dcs-000_dcs: dc = 36 mV         (12 %), step = 6 mV            (2 %)
    dcs-000_dcs: dc = 42 mV         (14 %), step = 6 mV            (2 %)
    dcs-000_dcs: dc = 48 mV         (16 %), step = 6 mV            (2 %)
    dcs-000_dcs: dc = 54 mV         (18 %), step = 6 mV            (2 %)
    dcs-000_dcs: dc = 60 mV         (20 %), step = 6 mV            (2 %)
    dcs-000_dcs: dc = 66 mV         (22 %), step = 6 mV            (2 %)
    dcs-000_dcs: dc = 72 mV         (24 %), step = 6 mV            (2 %)
    dcs-000_dcs: dc = 78 mV         (26 %), step = 6 mV            (2 %)
    dcs-000_dcs: dc = 84 mV         (28 %), step = 6 mV            (2 %)
    dcs-000_dcs: dc = 90 mV         (30 %), step = 6 mV            (2 %)
    dcs-000_dcs: dc = 96 mV         (32 %), step = 6 mV            (2 %)
    dcs-000_dcs: dc = 102 mV        (34 %), step = 6 mV            (2 %)
    dcs-000_dcs: dc = 108 mV        (36 %), step = 6 mV            (2 %)
    dcs-000_dcs: dc = 114 mV        (38 %), step = 6 mV            (2 %)
    dcs-000_dcs: dc = 120 mV        (40 %), step = 6 mV            (2 %)
    dcs-000_dcs: dc = 126 mV        (42 %), step = 6 mV            (2 %)
    dcs-000_dcs: dc = 132 mV        (44 %), step = 6 mV            (2 %)
    dcs-000_dcs: dc = 138 mV        (46 %), step = 6 mV            (2 %)
    dcs-000_dcs: dc = 144 mV        (48 %), step = 6 mV            (2 %)
    dcs-000_dcs: dc = 150 mV        (50 %), step = 6 mV            (2 %)
    dcs-000_dcs: dc = 156 mV        (52 %), step = 6 mV            (2 %)
    dcs-000_dcs: dc = 162 mV        (54 %), step = 6 mV            (2 %)
    dcs-000_dcs: dc = 168 mV        (56 %), step = 6 mV            (2 %)
    dcs-000_dcs: dc = 174 mV        (58 %), step = 6 mV            (2 %)
    dcs-000_dcs: dc = 180 mV        (60 %), step = 6 mV            (2 %)
    dcs-000_dcs: dc = 186 mV        (62 %), step = 6 mV            (2 %)
    dcs-000_dcs: dc = 192 mV        (64 %), step = 6 mV            (2 %)
    dcs-000_dcs: dc = 198 mV        (66 %), step = 6 mV            (2 %)
    dcs-000_dcs: dc = 204 mV        (68 %), step = 6 mV            (2 %)
    dcs-000_dcs: dc = 210 mV        (70 %), step = 6 mV            (2 %)
    dcs-000_dcs: dc = 216 mV        (72 %), step = 6 mV            (2 %)
    dcs-000_dcs: dc = 222 mV        (74 %), step = 6 mV            (2 %)
    dcs-000_dcs: dc = 228 mV        (76 %), step = 6 mV            (2 %)
    dcs-000_dcs: dc = 234 mV        (78 %), step = 6 mV            (2 %)
    dcs-000_dcs: dc = 240 mV        (80 %), step = 6 mV            (2 %)
    dcs-000_dcs: dc = 246 mV        (82 %), step = 6 mV            (2 %)
    dcs-000_dcs: dc = 252 mV        (84 %), step = 6 mV            (2 %)
    dcs-000_dcs: dc = 258 mV        (86 %), step = 6 mV            (2 %)
    dcs-000_dcs: dc = 264 mV        (88 %), step = 6 mV            (2 %)
    dcs-000_dcs: dc = 270 mV        (90 %), step = 6 mV            (2 %)
    dcs-000_dcs: dc = 276 mV        (92 %), step = 6 mV            (2 %)
    dcs-000_dcs: dc = 282 mV        (94 %), step = 6 mV            (2 %)
    dcs-000_dcs: dc = 288 mV        (96 %), step = 6 mV            (2 %)
    dcs-000_dcs: dc = 294 mV        (98 %), step = 6 mV            (2 %)
    dcs-000_dcs: dc = 300 mV       (100 %), step = 6 mV            (2 %)

Maximum value achieved for any signal of each quantity: 
V: V(IN) = 300 mV
I: I(V0:p) = 811.7 pA
DC simulation time: CPU = 13.997 ms, elapsed = 59.473 ms.

Notice from spectre at dc = 300 mV during DC analysis `dcs-000_dcs', during task `MDLControl'.
    The value of parameter 'dc' has been reset to the original value 0.

Total time required for dc analysis `dcs-000_dcs': CPU = 13.997 ms, elapsed = 59.5121 ms.
Time accumulated: CPU = 5.2532 s, elapsed = 5.95473 s.
Peak resident memory used = 230 Mbytes.


Warning from spectre.
    WARNING (SPECTRE-17101): The value 'psf' specified for the 'checklimitdest' option will no longer be supported in future releases. Use 'spectre -h' to see other recommended values for the 'checklimitdest' option.
    WARNING (SPECTRE-17101): The value 'psf' specified for the 'checklimitdest' option will no longer be supported in future releases. Use 'spectre -h' to see other recommended values for the 'checklimitdest' option.


************************************************************
Transient Analysis `trans-000_trans': time = (0 s -> 500 ns)
************************************************************
DC simulation time: CPU = 0 s, elapsed = 307.798 us.

Opening the PSFXL file ./input.raw/trans-000_trans.tran.tran ...
Important parameter values:
    start = 0 s
    outputstart = 0 s
    stop = 500 ns
    step = 500 ps
    maxstep = 10 ns
    ic = all
    useprevic = no
    skipdc = no
    reltol = 1e-03
    abstol(V) = 1 uV
    abstol(I) = 1 pA
    temp = 27 C
    tnom = 27 C
    tempeffects = all
    errpreset = moderate
    method = traponly
    lteratio = 3.5
    relref = sigglobal
    cmin = 0 F
    gmin = 1 pS


Output and IC/nodeset summary:
                 save   2       (current)
                 save   10      (voltage)
                 others 5       


Notice from spectre at time = 242.163 ps during transient analysis `trans-000_trans', during task `MDLControl'.
    Found trapezoidal ringing on node I23.PM2:int_g.
Notice from spectre at time = 316.761 ps during transient analysis `trans-000_trans', during task `MDLControl'.
    Found trapezoidal ringing on node I23.PM2:int_g.
Notice from spectre at time = 433.716 ps during transient analysis `trans-000_trans', during task `MDLControl'.
    Found trapezoidal ringing on node I23.PM2:int_g.
Notice from spectre at time = 615.686 ps during transient analysis `trans-000_trans', during task `MDLControl'.
    Found trapezoidal ringing on node I23.PM2:int_g.
Notice from spectre at time = 899.58 ps during transient analysis `trans-000_trans', during task `MDLControl'.
    Found trapezoidal ringing on node I23.PM2:int_g.
        Further occurrences of this notice will be suppressed.

......9......8......7......6......5......4......3......2......1......0
Number of accepted tran steps =             173

Notice from spectre during transient analysis `trans-000_trans', during task `MDLControl'.
    Trapezoidal ringing is detected during tran analysis.
        Please use method=trap for better results and performance.


Maximum value achieved for any signal of each quantity: 
V: V(I23.PM2:int_d) = 308 mV
I: I(V2:p) = 4.03 uA
If your circuit contains signals of the same quantity that are vastly different in size (such as high voltage circuitry combined with low voltage control circuitry), you should consider specifying global option `bin_relref=yes'.

~~~~~~~~~~~~~~~~~~~~~~~~~~~~~~~~~
Post-Transient Simulation Summary
~~~~~~~~~~~~~~~~~~~~~~~~~~~~~~~~~
   -   To further speed up simulation, consider
          add ++aps on command line
~~~~~~~~~~~~~~~~~~~~~~~~~~~~~~~~~


During simulation, the CPU load for active processors is :
         0 (9.2 %)       1 (80.3 %)      2 (2.9 %)      
        Total: 93.0%
Initial condition solution time: CPU = 0 s, elapsed = 351.191 us.
Intrinsic tran analysis time:    CPU = 26.995 ms, elapsed = 59.4058 ms.
Total time required for tran analysis `trans-000_trans': CPU = 28.995 ms, elapsed = 62.115 ms.
Time accumulated: CPU = 5.31919 s, elapsed = 6.05434 s.
Peak resident memory used = 230 Mbytes.


Notice from spectre during task `MDLControl'.
    93 notices suppressed.


**************************************************
DC Analysis `dcs-000_dcs': V2:dc = (0 V -> 300 mV)
**************************************************

Opening the PSF file ./input.raw/dcs-000_dcs.dc ...
Important parameter values:
    reltol = 1e-03
    abstol(V) = 1 uV
    abstol(I) = 1 pA
    temp = 27 C
    tnom = 27 C
    tempeffects = all
    gmindc = 1 pS
    dcs-000_dcs: dc = 12 mV          (4 %), step = 6 mV            (2 %)
    dcs-000_dcs: dc = 18 mV          (6 %), step = 6 mV            (2 %)
    dcs-000_dcs: dc = 24 mV          (8 %), step = 6 mV            (2 %)
    dcs-000_dcs: dc = 30 mV         (10 %), step = 6 mV            (2 %)
    dcs-000_dcs: dc = 36 mV         (12 %), step = 6 mV            (2 %)
    dcs-000_dcs: dc = 42 mV         (14 %), step = 6 mV            (2 %)
    dcs-000_dcs: dc = 48 mV         (16 %), step = 6 mV            (2 %)
    dcs-000_dcs: dc = 54 mV         (18 %), step = 6 mV            (2 %)
    dcs-000_dcs: dc = 60 mV         (20 %), step = 6 mV            (2 %)
    dcs-000_dcs: dc = 66 mV         (22 %), step = 6 mV            (2 %)
    dcs-000_dcs: dc = 72 mV         (24 %), step = 6 mV            (2 %)
    dcs-000_dcs: dc = 78 mV         (26 %), step = 6 mV            (2 %)
    dcs-000_dcs: dc = 84 mV         (28 %), step = 6 mV            (2 %)
    dcs-000_dcs: dc = 90 mV         (30 %), step = 6 mV            (2 %)
    dcs-000_dcs: dc = 96 mV         (32 %), step = 6 mV            (2 %)
    dcs-000_dcs: dc = 102 mV        (34 %), step = 6 mV            (2 %)
    dcs-000_dcs: dc = 108 mV        (36 %), step = 6 mV            (2 %)
    dcs-000_dcs: dc = 114 mV        (38 %), step = 6 mV            (2 %)
    dcs-000_dcs: dc = 120 mV        (40 %), step = 6 mV            (2 %)
    dcs-000_dcs: dc = 126 mV        (42 %), step = 6 mV            (2 %)
    dcs-000_dcs: dc = 132 mV        (44 %), step = 6 mV            (2 %)
    dcs-000_dcs: dc = 138 mV        (46 %), step = 6 mV            (2 %)
    dcs-000_dcs: dc = 144 mV        (48 %), step = 6 mV            (2 %)
    dcs-000_dcs: dc = 150 mV        (50 %), step = 6 mV            (2 %)
    dcs-000_dcs: dc = 156 mV        (52 %), step = 6 mV            (2 %)
    dcs-000_dcs: dc = 162 mV        (54 %), step = 6 mV            (2 %)
    dcs-000_dcs: dc = 168 mV        (56 %), step = 6 mV            (2 %)
    dcs-000_dcs: dc = 174 mV        (58 %), step = 6 mV            (2 %)
    dcs-000_dcs: dc = 180 mV        (60 %), step = 6 mV            (2 %)
    dcs-000_dcs: dc = 186 mV        (62 %), step = 6 mV            (2 %)
    dcs-000_dcs: dc = 192 mV        (64 %), step = 6 mV            (2 %)
    dcs-000_dcs: dc = 198 mV        (66 %), step = 6 mV            (2 %)
    dcs-000_dcs: dc = 204 mV        (68 %), step = 6 mV            (2 %)
    dcs-000_dcs: dc = 210 mV        (70 %), step = 6 mV            (2 %)
    dcs-000_dcs: dc = 216 mV        (72 %), step = 6 mV            (2 %)
    dcs-000_dcs: dc = 222 mV        (74 %), step = 6 mV            (2 %)
    dcs-000_dcs: dc = 228 mV        (76 %), step = 6 mV            (2 %)
    dcs-000_dcs: dc = 234 mV        (78 %), step = 6 mV            (2 %)
    dcs-000_dcs: dc = 240 mV        (80 %), step = 6 mV            (2 %)
    dcs-000_dcs: dc = 246 mV        (82 %), step = 6 mV            (2 %)
    dcs-000_dcs: dc = 252 mV        (84 %), step = 6 mV            (2 %)
    dcs-000_dcs: dc = 258 mV        (86 %), step = 6 mV            (2 %)
    dcs-000_dcs: dc = 264 mV        (88 %), step = 6 mV            (2 %)
    dcs-000_dcs: dc = 270 mV        (90 %), step = 6 mV            (2 %)
    dcs-000_dcs: dc = 276 mV        (92 %), step = 6 mV            (2 %)
    dcs-000_dcs: dc = 282 mV        (94 %), step = 6 mV            (2 %)
    dcs-000_dcs: dc = 288 mV        (96 %), step = 6 mV            (2 %)
    dcs-000_dcs: dc = 294 mV        (98 %), step = 6 mV            (2 %)
    dcs-000_dcs: dc = 300 mV       (100 %), step = 6 mV            (2 %)

Maximum value achieved for any signal of each quantity: 
V: V(IN) = 300 mV
I: I(V0:p) = 1.075 nA
DC simulation time: CPU = 12.999 ms, elapsed = 50.576 ms.

Notice from spectre at dc = 300 mV during DC analysis `dcs-000_dcs', during task `MDLControl'.
    The value of parameter 'dc' has been reset to the original value 0.

Total time required for dc analysis `dcs-000_dcs': CPU = 12.999 ms, elapsed = 50.617 ms.
Time accumulated: CPU = 5.33219 s, elapsed = 6.10551 s.
Peak resident memory used = 230 Mbytes.


Warning from spectre.
    WARNING (SPECTRE-17101): The value 'psf' specified for the 'checklimitdest' option will no longer be supported in future releases. Use 'spectre -h' to see other recommended values for the 'checklimitdest' option.
    WARNING (SPECTRE-17101): The value 'psf' specified for the 'checklimitdest' option will no longer be supported in future releases. Use 'spectre -h' to see other recommended values for the 'checklimitdest' option.


************************************************************
Transient Analysis `trans-000_trans': time = (0 s -> 500 ns)
************************************************************
DC simulation time: CPU = 0 s, elapsed = 422.001 us.

Opening the PSFXL file ./input.raw/trans-000_trans.tran.tran ...
Important parameter values:
    start = 0 s
    outputstart = 0 s
    stop = 500 ns
    step = 500 ps
    maxstep = 10 ns
    ic = all
    useprevic = no
    skipdc = no
    reltol = 1e-03
    abstol(V) = 1 uV
    abstol(I) = 1 pA
    temp = 27 C
    tnom = 27 C
    tempeffects = all
    errpreset = moderate
    method = traponly
    lteratio = 3.5
    relref = sigglobal
    cmin = 0 F
    gmin = 1 pS


Output and IC/nodeset summary:
                 save   2       (current)
                 save   10      (voltage)
                 others 5       


Notice from spectre at time = 264.98 ps during transient analysis `trans-000_trans', during task `MDLControl'.
    Found trapezoidal ringing on node I23.PM2:int_g.
Notice from spectre at time = 362.161 ps during transient analysis `trans-000_trans', during task `MDLControl'.
    Found trapezoidal ringing on node I23.PM2:int_g.
Notice from spectre at time = 520.734 ps during transient analysis `trans-000_trans', during task `MDLControl'.
    Found trapezoidal ringing on node I23.PM2:int_g.
Notice from spectre at time = 776.646 ps during transient analysis `trans-000_trans', during task `MDLControl'.
    Found trapezoidal ringing on node I23.PM2:int_g.
Notice from spectre at time = 1.19054 ns during transient analysis `trans-000_trans', during task `MDLControl'.
    Found trapezoidal ringing on node I23.PM2:int_g.
        Further occurrences of this notice will be suppressed.

......9......8......7......6......5......4......3......2......1......0
Number of accepted tran steps =             166

Notice from spectre during transient analysis `trans-000_trans', during task `MDLControl'.
    Trapezoidal ringing is detected during tran analysis.
        Please use method=trap for better results and performance.


Maximum value achieved for any signal of each quantity: 
V: V(I23.PM2:int_d) = 307.8 mV
I: I(V2:p) = 3.929 uA
If your circuit contains signals of the same quantity that are vastly different in size (such as high voltage circuitry combined with low voltage control circuitry), you should consider specifying global option `bin_relref=yes'.

~~~~~~~~~~~~~~~~~~~~~~~~~~~~~~~~~
Post-Transient Simulation Summary
~~~~~~~~~~~~~~~~~~~~~~~~~~~~~~~~~
   -   To further speed up simulation, consider
          add ++aps on command line
~~~~~~~~~~~~~~~~~~~~~~~~~~~~~~~~~


During simulation, the CPU load for active processors is :
         0 (10.3 %)      1 (78.6 %)      2 (2.8 %)      
        Total: 92.4%
Initial condition solution time: CPU = 0 s, elapsed = 492.811 us.
Intrinsic tran analysis time:    CPU = 28.995 ms, elapsed = 53.411 ms.
Total time required for tran analysis `trans-000_trans': CPU = 32.995 ms, elapsed = 56.746 ms.
Time accumulated: CPU = 5.40218 s, elapsed = 6.20027 s.
Peak resident memory used = 230 Mbytes.


Notice from spectre during task `MDLControl'.
    89 notices suppressed.


**************************************************
DC Analysis `dcs-000_dcs': V2:dc = (0 V -> 300 mV)
**************************************************

Opening the PSF file ./input.raw/dcs-000_dcs.dc ...
Important parameter values:
    reltol = 1e-03
    abstol(V) = 1 uV
    abstol(I) = 1 pA
    temp = 27 C
    tnom = 27 C
    tempeffects = all
    gmindc = 1 pS
    dcs-000_dcs: dc = 12 mV          (4 %), step = 6 mV            (2 %)
    dcs-000_dcs: dc = 18 mV          (6 %), step = 6 mV            (2 %)
    dcs-000_dcs: dc = 24 mV          (8 %), step = 6 mV            (2 %)
    dcs-000_dcs: dc = 30 mV         (10 %), step = 6 mV            (2 %)
    dcs-000_dcs: dc = 36 mV         (12 %), step = 6 mV            (2 %)
    dcs-000_dcs: dc = 42 mV         (14 %), step = 6 mV            (2 %)
    dcs-000_dcs: dc = 48 mV         (16 %), step = 6 mV            (2 %)
    dcs-000_dcs: dc = 54 mV         (18 %), step = 6 mV            (2 %)
    dcs-000_dcs: dc = 60 mV         (20 %), step = 6 mV            (2 %)
    dcs-000_dcs: dc = 66 mV         (22 %), step = 6 mV            (2 %)
    dcs-000_dcs: dc = 72 mV         (24 %), step = 6 mV            (2 %)
    dcs-000_dcs: dc = 78 mV         (26 %), step = 6 mV            (2 %)
    dcs-000_dcs: dc = 84 mV         (28 %), step = 6 mV            (2 %)
    dcs-000_dcs: dc = 90 mV         (30 %), step = 6 mV            (2 %)
    dcs-000_dcs: dc = 96 mV         (32 %), step = 6 mV            (2 %)
    dcs-000_dcs: dc = 102 mV        (34 %), step = 6 mV            (2 %)
    dcs-000_dcs: dc = 108 mV        (36 %), step = 6 mV            (2 %)
    dcs-000_dcs: dc = 114 mV        (38 %), step = 6 mV            (2 %)
    dcs-000_dcs: dc = 120 mV        (40 %), step = 6 mV            (2 %)
    dcs-000_dcs: dc = 126 mV        (42 %), step = 6 mV            (2 %)
    dcs-000_dcs: dc = 132 mV        (44 %), step = 6 mV            (2 %)
    dcs-000_dcs: dc = 138 mV        (46 %), step = 6 mV            (2 %)
    dcs-000_dcs: dc = 144 mV        (48 %), step = 6 mV            (2 %)
    dcs-000_dcs: dc = 150 mV        (50 %), step = 6 mV            (2 %)
    dcs-000_dcs: dc = 156 mV        (52 %), step = 6 mV            (2 %)
    dcs-000_dcs: dc = 162 mV        (54 %), step = 6 mV            (2 %)
    dcs-000_dcs: dc = 168 mV        (56 %), step = 6 mV            (2 %)
    dcs-000_dcs: dc = 174 mV        (58 %), step = 6 mV            (2 %)
    dcs-000_dcs: dc = 180 mV        (60 %), step = 6 mV            (2 %)
    dcs-000_dcs: dc = 186 mV        (62 %), step = 6 mV            (2 %)
    dcs-000_dcs: dc = 192 mV        (64 %), step = 6 mV            (2 %)
    dcs-000_dcs: dc = 198 mV        (66 %), step = 6 mV            (2 %)
    dcs-000_dcs: dc = 204 mV        (68 %), step = 6 mV            (2 %)
    dcs-000_dcs: dc = 210 mV        (70 %), step = 6 mV            (2 %)
    dcs-000_dcs: dc = 216 mV        (72 %), step = 6 mV            (2 %)
    dcs-000_dcs: dc = 222 mV        (74 %), step = 6 mV            (2 %)
    dcs-000_dcs: dc = 228 mV        (76 %), step = 6 mV            (2 %)
    dcs-000_dcs: dc = 234 mV        (78 %), step = 6 mV            (2 %)
    dcs-000_dcs: dc = 240 mV        (80 %), step = 6 mV            (2 %)
    dcs-000_dcs: dc = 246 mV        (82 %), step = 6 mV            (2 %)
    dcs-000_dcs: dc = 252 mV        (84 %), step = 6 mV            (2 %)
    dcs-000_dcs: dc = 258 mV        (86 %), step = 6 mV            (2 %)
    dcs-000_dcs: dc = 264 mV        (88 %), step = 6 mV            (2 %)
    dcs-000_dcs: dc = 270 mV        (90 %), step = 6 mV            (2 %)
    dcs-000_dcs: dc = 276 mV        (92 %), step = 6 mV            (2 %)
    dcs-000_dcs: dc = 282 mV        (94 %), step = 6 mV            (2 %)
    dcs-000_dcs: dc = 288 mV        (96 %), step = 6 mV            (2 %)
    dcs-000_dcs: dc = 294 mV        (98 %), step = 6 mV            (2 %)
    dcs-000_dcs: dc = 300 mV       (100 %), step = 6 mV            (2 %)

Maximum value achieved for any signal of each quantity: 
V: V(IN) = 300 mV
I: I(V0:p) = 69.9 pA
DC simulation time: CPU = 11.998 ms, elapsed = 45.9101 ms.

Notice from spectre at dc = 300 mV during DC analysis `dcs-000_dcs', during task `MDLControl'.
    The value of parameter 'dc' has been reset to the original value 0.

Total time required for dc analysis `dcs-000_dcs': CPU = 11.998 ms, elapsed = 45.9521 ms.
Time accumulated: CPU = 5.41418 s, elapsed = 6.24679 s.
Peak resident memory used = 230 Mbytes.


Warning from spectre.
    WARNING (SPECTRE-17101): The value 'psf' specified for the 'checklimitdest' option will no longer be supported in future releases. Use 'spectre -h' to see other recommended values for the 'checklimitdest' option.


************************************************************
Transient Analysis `trans-000_trans': time = (0 s -> 500 ns)
************************************************************
DC simulation time: CPU = 0 s, elapsed = 416.994 us.

Opening the PSFXL file ./input.raw/trans-000_trans.tran.tran ...
Important parameter values:
    start = 0 s
    outputstart = 0 s
    stop = 500 ns
    step = 500 ps
    maxstep = 10 ns
    ic = all
    useprevic = no
    skipdc = no
    reltol = 1e-03
    abstol(V) = 1 uV
    abstol(I) = 1 pA
    temp = 27 C
    tnom = 27 C
    tempeffects = all
    errpreset = moderate
    method = traponly
    lteratio = 3.5
    relref = sigglobal
    cmin = 0 F
    gmin = 1 pS


Output and IC/nodeset summary:
                 save   2       (current)
                 save   10      (voltage)
                 others 5       


Notice from spectre at time = 259.049 ps during transient analysis `trans-000_trans', during task `MDLControl'.
    Found trapezoidal ringing on node I23.PM2:int_g.
Notice from spectre at time = 350.188 ps during transient analysis `trans-000_trans', during task `MDLControl'.
    Found trapezoidal ringing on node I23.PM2:int_g.
Notice from spectre at time = 497.425 ps during transient analysis `trans-000_trans', during task `MDLControl'.
    Found trapezoidal ringing on node I23.PM2:int_g.
Notice from spectre at time = 732.851 ps during transient analysis `trans-000_trans', during task `MDLControl'.
    Found trapezoidal ringing on node I23.PM2:int_g.
Notice from spectre at time = 1.11014 ns during transient analysis `trans-000_trans', during task `MDLControl'.
    Found trapezoidal ringing on node I23.PM2:int_g.
        Further occurrences of this notice will be suppressed.

......9......8......7......6......5......4......3......2......1......0
Number of accepted tran steps =             170

Notice from spectre during transient analysis `trans-000_trans', during task `MDLControl'.
    Trapezoidal ringing is detected during tran analysis.
        Please use method=trap for better results and performance.


Maximum value achieved for any signal of each quantity: 
V: V(I23.PM2:int_d) = 308 mV
I: I(V2:p) = 4.038 uA
If your circuit contains signals of the same quantity that are vastly different in size (such as high voltage circuitry combined with low voltage control circuitry), you should consider specifying global option `bin_relref=yes'.

~~~~~~~~~~~~~~~~~~~~~~~~~~~~~~~~~
Post-Transient Simulation Summary
~~~~~~~~~~~~~~~~~~~~~~~~~~~~~~~~~
   -   To further speed up simulation, consider
          add ++aps on command line
~~~~~~~~~~~~~~~~~~~~~~~~~~~~~~~~~


During simulation, the CPU load for active processors is :
         0 (11.2 %)      1 (77.4 %)      2 (3.1 %)      
        Total: 92.3%
Initial condition solution time: CPU = 1 ms, elapsed = 489.95 us.
Intrinsic tran analysis time:    CPU = 27.995 ms, elapsed = 52.8879 ms.
Total time required for tran analysis `trans-000_trans': CPU = 29.995 ms, elapsed = 55.8679 ms.
Time accumulated: CPU = 5.46417 s, elapsed = 6.32365 s.
Peak resident memory used = 230 Mbytes.


Notice from spectre during task `MDLControl'.
    92 notices suppressed.


**************************************************
DC Analysis `dcs-000_dcs': V2:dc = (0 V -> 300 mV)
**************************************************

Opening the PSF file ./input.raw/dcs-000_dcs.dc ...
Important parameter values:
    reltol = 1e-03
    abstol(V) = 1 uV
    abstol(I) = 1 pA
    temp = 27 C
    tnom = 27 C
    tempeffects = all
    gmindc = 1 pS
    dcs-000_dcs: dc = 12 mV          (4 %), step = 6 mV            (2 %)
    dcs-000_dcs: dc = 18 mV          (6 %), step = 6 mV            (2 %)
    dcs-000_dcs: dc = 24 mV          (8 %), step = 6 mV            (2 %)
    dcs-000_dcs: dc = 30 mV         (10 %), step = 6 mV            (2 %)
    dcs-000_dcs: dc = 36 mV         (12 %), step = 6 mV            (2 %)
    dcs-000_dcs: dc = 42 mV         (14 %), step = 6 mV            (2 %)
    dcs-000_dcs: dc = 48 mV         (16 %), step = 6 mV            (2 %)
    dcs-000_dcs: dc = 54 mV         (18 %), step = 6 mV            (2 %)
    dcs-000_dcs: dc = 60 mV         (20 %), step = 6 mV            (2 %)
    dcs-000_dcs: dc = 66 mV         (22 %), step = 6 mV            (2 %)
    dcs-000_dcs: dc = 72 mV         (24 %), step = 6 mV            (2 %)
    dcs-000_dcs: dc = 78 mV         (26 %), step = 6 mV            (2 %)
    dcs-000_dcs: dc = 84 mV         (28 %), step = 6 mV            (2 %)
    dcs-000_dcs: dc = 90 mV         (30 %), step = 6 mV            (2 %)
    dcs-000_dcs: dc = 96 mV         (32 %), step = 6 mV            (2 %)
    dcs-000_dcs: dc = 102 mV        (34 %), step = 6 mV            (2 %)
    dcs-000_dcs: dc = 108 mV        (36 %), step = 6 mV            (2 %)
    dcs-000_dcs: dc = 114 mV        (38 %), step = 6 mV            (2 %)
    dcs-000_dcs: dc = 120 mV        (40 %), step = 6 mV            (2 %)
    dcs-000_dcs: dc = 126 mV        (42 %), step = 6 mV            (2 %)
    dcs-000_dcs: dc = 132 mV        (44 %), step = 6 mV            (2 %)
    dcs-000_dcs: dc = 138 mV        (46 %), step = 6 mV            (2 %)
    dcs-000_dcs: dc = 144 mV        (48 %), step = 6 mV            (2 %)
    dcs-000_dcs: dc = 150 mV        (50 %), step = 6 mV            (2 %)
    dcs-000_dcs: dc = 156 mV        (52 %), step = 6 mV            (2 %)
    dcs-000_dcs: dc = 162 mV        (54 %), step = 6 mV            (2 %)
    dcs-000_dcs: dc = 168 mV        (56 %), step = 6 mV            (2 %)
    dcs-000_dcs: dc = 174 mV        (58 %), step = 6 mV            (2 %)
    dcs-000_dcs: dc = 180 mV        (60 %), step = 6 mV            (2 %)
    dcs-000_dcs: dc = 186 mV        (62 %), step = 6 mV            (2 %)
    dcs-000_dcs: dc = 192 mV        (64 %), step = 6 mV            (2 %)
    dcs-000_dcs: dc = 198 mV        (66 %), step = 6 mV            (2 %)
    dcs-000_dcs: dc = 204 mV        (68 %), step = 6 mV            (2 %)
    dcs-000_dcs: dc = 210 mV        (70 %), step = 6 mV            (2 %)
    dcs-000_dcs: dc = 216 mV        (72 %), step = 6 mV            (2 %)
    dcs-000_dcs: dc = 222 mV        (74 %), step = 6 mV            (2 %)
    dcs-000_dcs: dc = 228 mV        (76 %), step = 6 mV            (2 %)
    dcs-000_dcs: dc = 234 mV        (78 %), step = 6 mV            (2 %)
    dcs-000_dcs: dc = 240 mV        (80 %), step = 6 mV            (2 %)
    dcs-000_dcs: dc = 246 mV        (82 %), step = 6 mV            (2 %)
    dcs-000_dcs: dc = 252 mV        (84 %), step = 6 mV            (2 %)
    dcs-000_dcs: dc = 258 mV        (86 %), step = 6 mV            (2 %)
    dcs-000_dcs: dc = 264 mV        (88 %), step = 6 mV            (2 %)
    dcs-000_dcs: dc = 270 mV        (90 %), step = 6 mV            (2 %)
    dcs-000_dcs: dc = 276 mV        (92 %), step = 6 mV            (2 %)
    dcs-000_dcs: dc = 282 mV        (94 %), step = 6 mV            (2 %)
    dcs-000_dcs: dc = 288 mV        (96 %), step = 6 mV            (2 %)
    dcs-000_dcs: dc = 294 mV        (98 %), step = 6 mV            (2 %)
    dcs-000_dcs: dc = 300 mV       (100 %), step = 6 mV            (2 %)

Maximum value achieved for any signal of each quantity: 
V: V(IN) = 300 mV
I: I(V0:p) = 72.1 pA
DC simulation time: CPU = 12.998 ms, elapsed = 41.29 ms.

Notice from spectre at dc = 300 mV during DC analysis `dcs-000_dcs', during task `MDLControl'.
    The value of parameter 'dc' has been reset to the original value 0.

Total time required for dc analysis `dcs-000_dcs': CPU = 12.998 ms, elapsed = 41.3308 ms.
Time accumulated: CPU = 5.47717 s, elapsed = 6.36557 s.
Peak resident memory used = 230 Mbytes.


Warning from spectre.
    WARNING (SPECTRE-17101): The value 'psf' specified for the 'checklimitdest' option will no longer be supported in future releases. Use 'spectre -h' to see other recommended values for the 'checklimitdest' option.
    WARNING (SPECTRE-17101): The value 'psf' specified for the 'checklimitdest' option will no longer be supported in future releases. Use 'spectre -h' to see other recommended values for the 'checklimitdest' option.


************************************************************
Transient Analysis `trans-000_trans': time = (0 s -> 500 ns)
************************************************************
DC simulation time: CPU = 0 s, elapsed = 312.09 us.

Opening the PSFXL file ./input.raw/trans-000_trans.tran.tran ...
Important parameter values:
    start = 0 s
    outputstart = 0 s
    stop = 500 ns
    step = 500 ps
    maxstep = 10 ns
    ic = all
    useprevic = no
    skipdc = no
    reltol = 1e-03
    abstol(V) = 1 uV
    abstol(I) = 1 pA
    temp = 27 C
    tnom = 27 C
    tempeffects = all
    errpreset = moderate
    method = traponly
    lteratio = 3.5
    relref = sigglobal
    cmin = 0 F
    gmin = 1 pS


Output and IC/nodeset summary:
                 save   2       (current)
                 save   10      (voltage)
                 others 5       


Notice from spectre at time = 265.005 ps during transient analysis `trans-000_trans', during task `MDLControl'.
    Found trapezoidal ringing on node I23.PM2:int_g.
Notice from spectre at time = 362.205 ps during transient analysis `trans-000_trans', during task `MDLControl'.
    Found trapezoidal ringing on node I23.PM2:int_g.
Notice from spectre at time = 520.812 ps during transient analysis `trans-000_trans', during task `MDLControl'.
    Found trapezoidal ringing on node I23.PM2:int_g.
Notice from spectre at time = 776.781 ps during transient analysis `trans-000_trans', during task `MDLControl'.
    Found trapezoidal ringing on node I23.PM2:int_g.
Notice from spectre at time = 1.19078 ns during transient analysis `trans-000_trans', during task `MDLControl'.
    Found trapezoidal ringing on node I23.PM2:int_g.
        Further occurrences of this notice will be suppressed.

......9......8......7......6......5......4......3......2......1......0
Number of accepted tran steps =             165

Notice from spectre during transient analysis `trans-000_trans', during task `MDLControl'.
    Trapezoidal ringing is detected during tran analysis.
        Please use method=trap for better results and performance.


Maximum value achieved for any signal of each quantity: 
V: V(I23.PM2:int_d) = 307.8 mV
I: I(V2:p) = 3.938 uA
If your circuit contains signals of the same quantity that are vastly different in size (such as high voltage circuitry combined with low voltage control circuitry), you should consider specifying global option `bin_relref=yes'.

~~~~~~~~~~~~~~~~~~~~~~~~~~~~~~~~~
Post-Transient Simulation Summary
~~~~~~~~~~~~~~~~~~~~~~~~~~~~~~~~~
   -   To further speed up simulation, consider
          add ++aps on command line
~~~~~~~~~~~~~~~~~~~~~~~~~~~~~~~~~


During simulation, the CPU load for active processors is :
         0 (12.1 %)      1 (76.0 %)      2 (3.2 %)      
        Total: 91.9%
Initial condition solution time: CPU = 0 s, elapsed = 354.052 us.
Intrinsic tran analysis time:    CPU = 23.996 ms, elapsed = 49.2029 ms.
Total time required for tran analysis `trans-000_trans': CPU = 26.996 ms, elapsed = 51.8742 ms.
Time accumulated: CPU = 5.54116 s, elapsed = 6.45521 s.
Peak resident memory used = 230 Mbytes.


Notice from spectre during task `MDLControl'.
    87 notices suppressed.


**************************************************
DC Analysis `dcs-000_dcs': V2:dc = (0 V -> 300 mV)
**************************************************

Opening the PSF file ./input.raw/dcs-000_dcs.dc ...
Important parameter values:
    reltol = 1e-03
    abstol(V) = 1 uV
    abstol(I) = 1 pA
    temp = 27 C
    tnom = 27 C
    tempeffects = all
    gmindc = 1 pS
    dcs-000_dcs: dc = 12 mV          (4 %), step = 6 mV            (2 %)
    dcs-000_dcs: dc = 18 mV          (6 %), step = 6 mV            (2 %)
    dcs-000_dcs: dc = 24 mV          (8 %), step = 6 mV            (2 %)
    dcs-000_dcs: dc = 30 mV         (10 %), step = 6 mV            (2 %)
    dcs-000_dcs: dc = 36 mV         (12 %), step = 6 mV            (2 %)
    dcs-000_dcs: dc = 42 mV         (14 %), step = 6 mV            (2 %)
    dcs-000_dcs: dc = 48 mV         (16 %), step = 6 mV            (2 %)
    dcs-000_dcs: dc = 54 mV         (18 %), step = 6 mV            (2 %)
    dcs-000_dcs: dc = 60 mV         (20 %), step = 6 mV            (2 %)
    dcs-000_dcs: dc = 66 mV         (22 %), step = 6 mV            (2 %)
    dcs-000_dcs: dc = 72 mV         (24 %), step = 6 mV            (2 %)
    dcs-000_dcs: dc = 78 mV         (26 %), step = 6 mV            (2 %)
    dcs-000_dcs: dc = 84 mV         (28 %), step = 6 mV            (2 %)
    dcs-000_dcs: dc = 90 mV         (30 %), step = 6 mV            (2 %)
    dcs-000_dcs: dc = 96 mV         (32 %), step = 6 mV            (2 %)
    dcs-000_dcs: dc = 102 mV        (34 %), step = 6 mV            (2 %)
    dcs-000_dcs: dc = 108 mV        (36 %), step = 6 mV            (2 %)
    dcs-000_dcs: dc = 114 mV        (38 %), step = 6 mV            (2 %)
    dcs-000_dcs: dc = 120 mV        (40 %), step = 6 mV            (2 %)
    dcs-000_dcs: dc = 126 mV        (42 %), step = 6 mV            (2 %)
    dcs-000_dcs: dc = 132 mV        (44 %), step = 6 mV            (2 %)
    dcs-000_dcs: dc = 138 mV        (46 %), step = 6 mV            (2 %)
    dcs-000_dcs: dc = 144 mV        (48 %), step = 6 mV            (2 %)
    dcs-000_dcs: dc = 150 mV        (50 %), step = 6 mV            (2 %)
    dcs-000_dcs: dc = 156 mV        (52 %), step = 6 mV            (2 %)
    dcs-000_dcs: dc = 162 mV        (54 %), step = 6 mV            (2 %)
    dcs-000_dcs: dc = 168 mV        (56 %), step = 6 mV            (2 %)
    dcs-000_dcs: dc = 174 mV        (58 %), step = 6 mV            (2 %)
    dcs-000_dcs: dc = 180 mV        (60 %), step = 6 mV            (2 %)
    dcs-000_dcs: dc = 186 mV        (62 %), step = 6 mV            (2 %)
    dcs-000_dcs: dc = 192 mV        (64 %), step = 6 mV            (2 %)
    dcs-000_dcs: dc = 198 mV        (66 %), step = 6 mV            (2 %)
    dcs-000_dcs: dc = 204 mV        (68 %), step = 6 mV            (2 %)
    dcs-000_dcs: dc = 210 mV        (70 %), step = 6 mV            (2 %)
    dcs-000_dcs: dc = 216 mV        (72 %), step = 6 mV            (2 %)
    dcs-000_dcs: dc = 222 mV        (74 %), step = 6 mV            (2 %)
    dcs-000_dcs: dc = 228 mV        (76 %), step = 6 mV            (2 %)
    dcs-000_dcs: dc = 234 mV        (78 %), step = 6 mV            (2 %)
    dcs-000_dcs: dc = 240 mV        (80 %), step = 6 mV            (2 %)
    dcs-000_dcs: dc = 246 mV        (82 %), step = 6 mV            (2 %)
    dcs-000_dcs: dc = 252 mV        (84 %), step = 6 mV            (2 %)
    dcs-000_dcs: dc = 258 mV        (86 %), step = 6 mV            (2 %)
    dcs-000_dcs: dc = 264 mV        (88 %), step = 6 mV            (2 %)
    dcs-000_dcs: dc = 270 mV        (90 %), step = 6 mV            (2 %)
    dcs-000_dcs: dc = 276 mV        (92 %), step = 6 mV            (2 %)
    dcs-000_dcs: dc = 282 mV        (94 %), step = 6 mV            (2 %)
    dcs-000_dcs: dc = 288 mV        (96 %), step = 6 mV            (2 %)
    dcs-000_dcs: dc = 294 mV        (98 %), step = 6 mV            (2 %)
    dcs-000_dcs: dc = 300 mV       (100 %), step = 6 mV            (2 %)

Maximum value achieved for any signal of each quantity: 
V: V(IN) = 300 mV
I: I(V0:p) = 69.9 pA
DC simulation time: CPU = 15.998 ms, elapsed = 46.6471 ms.

Notice from spectre at dc = 300 mV during DC analysis `dcs-000_dcs', during task `MDLControl'.
    The value of parameter 'dc' has been reset to the original value 0.

Total time required for dc analysis `dcs-000_dcs': CPU = 15.998 ms, elapsed = 46.6871 ms.
Time accumulated: CPU = 5.55715 s, elapsed = 6.50246 s.
Peak resident memory used = 230 Mbytes.


Warning from spectre.
    WARNING (SPECTRE-17101): The value 'psf' specified for the 'checklimitdest' option will no longer be supported in future releases. Use 'spectre -h' to see other recommended values for the 'checklimitdest' option.
    WARNING (SPECTRE-17101): The value 'psf' specified for the 'checklimitdest' option will no longer be supported in future releases. Use 'spectre -h' to see other recommended values for the 'checklimitdest' option.


************************************************************
Transient Analysis `trans-000_trans': time = (0 s -> 500 ns)
************************************************************
DC simulation time: CPU = 0 s, elapsed = 311.852 us.

Opening the PSFXL file ./input.raw/trans-000_trans.tran.tran ...
Important parameter values:
    start = 0 s
    outputstart = 0 s
    stop = 500 ns
    step = 500 ps
    maxstep = 10 ns
    ic = all
    useprevic = no
    skipdc = no
    reltol = 1e-03
    abstol(V) = 1 uV
    abstol(I) = 1 pA
    temp = 27 C
    tnom = 27 C
    tempeffects = all
    errpreset = moderate
    method = traponly
    lteratio = 3.5
    relref = sigglobal
    cmin = 0 F
    gmin = 1 pS


Output and IC/nodeset summary:
                 save   2       (current)
                 save   10      (voltage)
                 others 5       


Notice from spectre at time = 267 ps during transient analysis `trans-000_trans', during task `MDLControl'.
    Found trapezoidal ringing on node I23.PM2:int_g.
Notice from spectre at time = 366.271 ps during transient analysis `trans-000_trans', during task `MDLControl'.
    Found trapezoidal ringing on node I23.PM2:int_g.
Notice from spectre at time = 528.799 ps during transient analysis `trans-000_trans', during task `MDLControl'.
    Found trapezoidal ringing on node I23.PM2:int_g.
Notice from spectre at time = 791.913 ps during transient analysis `trans-000_trans', during task `MDLControl'.
    Found trapezoidal ringing on node I23.PM2:int_g.
Notice from spectre at time = 1.21878 ns during transient analysis `trans-000_trans', during task `MDLControl'.
    Found trapezoidal ringing on node I23.PM2:int_g.
        Further occurrences of this notice will be suppressed.

......9......8......7......6......5......4......3......2......1......0
Number of accepted tran steps =             167

Notice from spectre during transient analysis `trans-000_trans', during task `MDLControl'.
    Trapezoidal ringing is detected during tran analysis.
        Please use method=trap for better results and performance.


Maximum value achieved for any signal of each quantity: 
V: V(I23.PM2:int_d) = 307.8 mV
I: I(V2:p) = 3.944 uA
[...]
    dcs-000_dcs: dc = 270 mV        (90 %), step = 6 mV            (2 %)
    dcs-000_dcs: dc = 276 mV        (92 %), step = 6 mV            (2 %)
    dcs-000_dcs: dc = 282 mV        (94 %), step = 6 mV            (2 %)
    dcs-000_dcs: dc = 288 mV        (96 %), step = 6 mV            (2 %)
    dcs-000_dcs: dc = 294 mV        (98 %), step = 6 mV            (2 %)
    dcs-000_dcs: dc = 300 mV       (100 %), step = 6 mV            (2 %)

Maximum value achieved for any signal of each quantity: 
V: V(IN) = 300 mV
I: I(V0:p) = 12.44 pA
DC simulation time: CPU = 11.999 ms, elapsed = 55.2931 ms.

Notice from spectre at dc = 300 mV during DC analysis `dcs-000_dcs', during task `MDLControl'.
    The value of parameter 'dc' has been reset to the original value 0.

Total time required for dc analysis `dcs-000_dcs': CPU = 11.999 ms, elapsed = 55.3341 ms.
Time accumulated: CPU = 8.05177 s, elapsed = 11.3169 s.
Peak resident memory used = 231 Mbytes.


Notice from spectre during task `MDLControl'.
    12 notices suppressed.


************************************************************
Transient Analysis `trans-000_trans': time = (0 s -> 500 ns)
************************************************************
DC simulation time: CPU = 0 s, elapsed = 236.034 us.

Opening the PSFXL file ./input.raw/trans-000_trans.tran.tran ...
Important parameter values:
    start = 0 s
    outputstart = 0 s
    stop = 500 ns
    step = 500 ps
    maxstep = 10 ns
    ic = all
    useprevic = no
    skipdc = no
    reltol = 1e-03
    abstol(V) = 1 uV
    abstol(I) = 1 pA
    temp = 27 C
    tnom = 27 C
    tempeffects = all
    errpreset = moderate
    method = traponly
    lteratio = 3.5
    relref = sigglobal
    cmin = 0 F
    gmin = 1 pS


Output and IC/nodeset summary:
                 save   2       (current)
                 save   10      (voltage)
                 others 5       


Notice from spectre at time = 3.3284 ns during transient analysis `trans-000_trans', during task `MDLControl'.
    Found trapezoidal ringing on node V2:p.
Notice from spectre at time = 6.55264 ns during transient analysis `trans-000_trans', during task `MDLControl'.
    Found trapezoidal ringing on node V2:p.

.

Notice from spectre at time = 7.65462 ns during transient analysis `trans-000_trans', during task `MDLControl'.
    Found trapezoidal ringing on node V2:p.
Notice from spectre at time = 9.85856 ns during transient analysis `trans-000_trans', during task `MDLControl'.
    Found trapezoidal ringing on node V2:p.
Notice from spectre at time = 14.2665 ns during transient analysis `trans-000_trans', during task `MDLControl'.
    Found trapezoidal ringing on node V2:p.
        Further occurrences of this notice will be suppressed.

......9......8......7......6......5......4......3......2......1......0
Number of accepted tran steps =             127

Notice from spectre during transient analysis `trans-000_trans', during task `MDLControl'.
    Trapezoidal ringing is detected during tran analysis.
        Please use method=trap for better results and performance.


Maximum value achieved for any signal of each quantity: 
V: V(I23.PM2:int_d) = 303.3 mV
I: I(V2:p) = 1.758 uA
If your circuit contains signals of the same quantity that are vastly different in size (such as high voltage circuitry combined with low voltage control circuitry), you should consider specifying global option `bin_relref=yes'.

~~~~~~~~~~~~~~~~~~~~~~~~~~~~~~~~~
Post-Transient Simulation Summary
~~~~~~~~~~~~~~~~~~~~~~~~~~~~~~~~~
   -   To further speed up simulation, consider
          add ++aps on command line
~~~~~~~~~~~~~~~~~~~~~~~~~~~~~~~~~


During simulation, the CPU load for active processors is :
         0 (29.8 %)      1 (47.1 %)      2 (5.7 %)       3 (1.6 %)
        Total: 84.2%
Initial condition solution time: CPU = 0 s, elapsed = 272.989 us.
Intrinsic tran analysis time:    CPU = 17.996 ms, elapsed = 62.3071 ms.
Total time required for tran analysis `trans-000_trans': CPU = 20.996 ms, elapsed = 64.832 ms.
Time accumulated: CPU = 8.07477 s, elapsed = 11.3833 s.
Peak resident memory used = 231 Mbytes.


Notice from spectre during task `MDLControl'.
    39 notices suppressed.


**************************************************
DC Analysis `dcs-000_dcs': V2:dc = (0 V -> 300 mV)
**************************************************

Opening the PSF file ./input.raw/dcs-000_dcs.dc ...
Important parameter values:
    reltol = 1e-03
    abstol(V) = 1 uV
    abstol(I) = 1 pA
    temp = 27 C
    tnom = 27 C
    tempeffects = all
    gmindc = 1 pS
    dcs-000_dcs: dc = 12 mV          (4 %), step = 6 mV            (2 %)
    dcs-000_dcs: dc = 18 mV          (6 %), step = 6 mV            (2 %)
    dcs-000_dcs: dc = 24 mV          (8 %), step = 6 mV            (2 %)
    dcs-000_dcs: dc = 30 mV         (10 %), step = 6 mV            (2 %)
    dcs-000_dcs: dc = 36 mV         (12 %), step = 6 mV            (2 %)
    dcs-000_dcs: dc = 42 mV         (14 %), step = 6 mV            (2 %)
    dcs-000_dcs: dc = 48 mV         (16 %), step = 6 mV            (2 %)
    dcs-000_dcs: dc = 54 mV         (18 %), step = 6 mV            (2 %)
    dcs-000_dcs: dc = 60 mV         (20 %), step = 6 mV            (2 %)
    dcs-000_dcs: dc = 66 mV         (22 %), step = 6 mV            (2 %)
    dcs-000_dcs: dc = 72 mV         (24 %), step = 6 mV            (2 %)
    dcs-000_dcs: dc = 78 mV         (26 %), step = 6 mV            (2 %)
    dcs-000_dcs: dc = 84 mV         (28 %), step = 6 mV            (2 %)
    dcs-000_dcs: dc = 90 mV         (30 %), step = 6 mV            (2 %)
    dcs-000_dcs: dc = 96 mV         (32 %), step = 6 mV            (2 %)
    dcs-000_dcs: dc = 102 mV        (34 %), step = 6 mV            (2 %)
    dcs-000_dcs: dc = 108 mV        (36 %), step = 6 mV            (2 %)
    dcs-000_dcs: dc = 114 mV        (38 %), step = 6 mV            (2 %)
    dcs-000_dcs: dc = 120 mV        (40 %), step = 6 mV            (2 %)
    dcs-000_dcs: dc = 126 mV        (42 %), step = 6 mV            (2 %)
    dcs-000_dcs: dc = 132 mV        (44 %), step = 6 mV            (2 %)
    dcs-000_dcs: dc = 138 mV        (46 %), step = 6 mV            (2 %)
    dcs-000_dcs: dc = 144 mV        (48 %), step = 6 mV            (2 %)
    dcs-000_dcs: dc = 150 mV        (50 %), step = 6 mV            (2 %)

Notice from spectre at dc = 156 mV during DC analysis `dcs-000_dcs', during task `MDLControl'.
    GminDC = 1 pS is large enough to noticeably affect the DC solution.
        dV(I23.PM2:int_d) = 51.1196 uV
        Use the `gmin_check' option to eliminate or expand this report.

    dcs-000_dcs: dc = 156 mV        (52 %), step = 6 mV            (2 %)

Notice from spectre at dc = 162 mV during DC analysis `dcs-000_dcs', during task `MDLControl'.
    GminDC = 1 pS is large enough to noticeably affect the DC solution.
        dV(I23.PM2:int_d) = 30.7297 uV
        Use the `gmin_check' option to eliminate or expand this report.

    dcs-000_dcs: dc = 162 mV        (54 %), step = 6 mV            (2 %)

Notice from spectre at dc = 168 mV during DC analysis `dcs-000_dcs', during task `MDLControl'.
    GminDC = 1 pS is large enough to noticeably affect the DC solution.
        dV(I23.PM2:int_d) = 21.6729 uV
        Use the `gmin_check' option to eliminate or expand this report.

    dcs-000_dcs: dc = 168 mV        (56 %), step = 6 mV            (2 %)

Notice from spectre at dc = 174 mV during DC analysis `dcs-000_dcs', during task `MDLControl'.
    GminDC = 1 pS is large enough to noticeably affect the DC solution.
        dV(I23.PM2:int_d) = 16.4131 uV
        Use the `gmin_check' option to eliminate or expand this report.

    dcs-000_dcs: dc = 174 mV        (58 %), step = 6 mV            (2 %)

Notice from spectre at dc = 180 mV during DC analysis `dcs-000_dcs', during task `MDLControl'.
    GminDC = 1 pS is large enough to noticeably affect the DC solution.
        Further occurrences of this notice will be suppressed.
        dV(I23.PM2:int_d) = 12.8644 uV
        Further occurrences of this notice will be suppressed.
        Use the `gmin_check' option to eliminate or expand this report.
        Further occurrences of this notice will be suppressed.

    dcs-000_dcs: dc = 180 mV        (60 %), step = 6 mV            (2 %)
    dcs-000_dcs: dc = 186 mV        (62 %), step = 6 mV            (2 %)
    dcs-000_dcs: dc = 192 mV        (64 %), step = 6 mV            (2 %)
    dcs-000_dcs: dc = 198 mV        (66 %), step = 6 mV            (2 %)
    dcs-000_dcs: dc = 204 mV        (68 %), step = 6 mV            (2 %)
    dcs-000_dcs: dc = 210 mV        (70 %), step = 6 mV            (2 %)
    dcs-000_dcs: dc = 216 mV        (72 %), step = 6 mV            (2 %)
    dcs-000_dcs: dc = 222 mV        (74 %), step = 6 mV            (2 %)
    dcs-000_dcs: dc = 228 mV        (76 %), step = 6 mV            (2 %)
    dcs-000_dcs: dc = 234 mV        (78 %), step = 6 mV            (2 %)
    dcs-000_dcs: dc = 240 mV        (80 %), step = 6 mV            (2 %)
    dcs-000_dcs: dc = 246 mV        (82 %), step = 6 mV            (2 %)
    dcs-000_dcs: dc = 252 mV        (84 %), step = 6 mV            (2 %)
    dcs-000_dcs: dc = 258 mV        (86 %), step = 6 mV            (2 %)
    dcs-000_dcs: dc = 264 mV        (88 %), step = 6 mV            (2 %)
    dcs-000_dcs: dc = 270 mV        (90 %), step = 6 mV            (2 %)
    dcs-000_dcs: dc = 276 mV        (92 %), step = 6 mV            (2 %)
    dcs-000_dcs: dc = 282 mV        (94 %), step = 6 mV            (2 %)
    dcs-000_dcs: dc = 288 mV        (96 %), step = 6 mV            (2 %)
    dcs-000_dcs: dc = 294 mV        (98 %), step = 6 mV            (2 %)
    dcs-000_dcs: dc = 300 mV       (100 %), step = 6 mV            (2 %)

Maximum value achieved for any signal of each quantity: 
V: V(IN) = 300 mV
I: I(V0:p) = 12.44 pA
DC simulation time: CPU = 13.999 ms, elapsed = 51.7631 ms.

Notice from spectre at dc = 300 mV during DC analysis `dcs-000_dcs', during task `MDLControl'.
    The value of parameter 'dc' has been reset to the original value 0.

Total time required for dc analysis `dcs-000_dcs': CPU = 13.999 ms, elapsed = 51.805 ms.
Time accumulated: CPU = 8.08877 s, elapsed = 11.4357 s.
Peak resident memory used = 231 Mbytes.


Notice from spectre during task `MDLControl'.
    12 notices suppressed.


************************************************************
Transient Analysis `trans-000_trans': time = (0 s -> 500 ns)
************************************************************
DC simulation time: CPU = 0 s, elapsed = 237.942 us.

Opening the PSFXL file ./input.raw/trans-000_trans.tran.tran ...
Important parameter values:
    start = 0 s
    outputstart = 0 s
    stop = 500 ns
    step = 500 ps
    maxstep = 10 ns
    ic = all
    useprevic = no
    skipdc = no
    reltol = 1e-03
    abstol(V) = 1 uV
    abstol(I) = 1 pA
    temp = 27 C
    tnom = 27 C
    tempeffects = all
    errpreset = moderate
    method = traponly
    lteratio = 3.5
    relref = sigglobal
    cmin = 0 F
    gmin = 1 pS


Output and IC/nodeset summary:
                 save   2       (current)
                 save   10      (voltage)
                 others 5       


Notice from spectre at time = 3.3284 ns during transient analysis `trans-000_trans', during task `MDLControl'.
    Found trapezoidal ringing on node V2:p.
Notice from spectre at time = 6.55264 ns during transient analysis `trans-000_trans', during task `MDLControl'.
    Found trapezoidal ringing on node V2:p.

.

Notice from spectre at time = 7.65462 ns during transient analysis `trans-000_trans', during task `MDLControl'.
    Found trapezoidal ringing on node V2:p.
Notice from spectre at time = 9.85856 ns during transient analysis `trans-000_trans', during task `MDLControl'.
    Found trapezoidal ringing on node V2:p.
Notice from spectre at time = 14.2665 ns during transient analysis `trans-000_trans', during task `MDLControl'.
    Found trapezoidal ringing on node V2:p.
        Further occurrences of this notice will be suppressed.

......9......8......7......6......5......4......3......2......1......0
Number of accepted tran steps =             127

Notice from spectre during transient analysis `trans-000_trans', during task `MDLControl'.
    Trapezoidal ringing is detected during tran analysis.
        Please use method=trap for better results and performance.


Maximum value achieved for any signal of each quantity: 
V: V(I23.PM2:int_d) = 303.3 mV
I: I(V2:p) = 1.758 uA
If your circuit contains signals of the same quantity that are vastly different in size (such as high voltage circuitry combined with low voltage control circuitry), you should consider specifying global option `bin_relref=yes'.

~~~~~~~~~~~~~~~~~~~~~~~~~~~~~~~~~
Post-Transient Simulation Summary
~~~~~~~~~~~~~~~~~~~~~~~~~~~~~~~~~
   -   To further speed up simulation, consider
          add ++aps on command line
~~~~~~~~~~~~~~~~~~~~~~~~~~~~~~~~~


During simulation, the CPU load for active processors is :
         0 (30.0 %)      1 (46.7 %)      2 (5.6 %)       3 (1.6 %)
        Total: 84.0%
Initial condition solution time: CPU = 0 s, elapsed = 276.089 us.
Intrinsic tran analysis time:    CPU = 20.996 ms, elapsed = 63.9658 ms.
Total time required for tran analysis `trans-000_trans': CPU = 22.996 ms, elapsed = 66.4549 ms.
Time accumulated: CPU = 8.11377 s, elapsed = 11.5038 s.
Peak resident memory used = 231 Mbytes.


Notice from spectre during task `MDLControl'.
    39 notices suppressed.


**************************************************
DC Analysis `dcs-000_dcs': V2:dc = (0 V -> 300 mV)
**************************************************

Opening the PSF file ./input.raw/dcs-000_dcs.dc ...
Important parameter values:
    reltol = 1e-03
    abstol(V) = 1 uV
    abstol(I) = 1 pA
    temp = 27 C
    tnom = 27 C
    tempeffects = all
    gmindc = 1 pS
    dcs-000_dcs: dc = 12 mV          (4 %), step = 6 mV            (2 %)
    dcs-000_dcs: dc = 18 mV          (6 %), step = 6 mV            (2 %)
    dcs-000_dcs: dc = 24 mV          (8 %), step = 6 mV            (2 %)
    dcs-000_dcs: dc = 30 mV         (10 %), step = 6 mV            (2 %)
    dcs-000_dcs: dc = 36 mV         (12 %), step = 6 mV            (2 %)
    dcs-000_dcs: dc = 42 mV         (14 %), step = 6 mV            (2 %)
    dcs-000_dcs: dc = 48 mV         (16 %), step = 6 mV            (2 %)
    dcs-000_dcs: dc = 54 mV         (18 %), step = 6 mV            (2 %)
    dcs-000_dcs: dc = 60 mV         (20 %), step = 6 mV            (2 %)
    dcs-000_dcs: dc = 66 mV         (22 %), step = 6 mV            (2 %)
    dcs-000_dcs: dc = 72 mV         (24 %), step = 6 mV            (2 %)
    dcs-000_dcs: dc = 78 mV         (26 %), step = 6 mV            (2 %)
    dcs-000_dcs: dc = 84 mV         (28 %), step = 6 mV            (2 %)
    dcs-000_dcs: dc = 90 mV         (30 %), step = 6 mV            (2 %)
    dcs-000_dcs: dc = 96 mV         (32 %), step = 6 mV            (2 %)
    dcs-000_dcs: dc = 102 mV        (34 %), step = 6 mV            (2 %)
    dcs-000_dcs: dc = 108 mV        (36 %), step = 6 mV            (2 %)
    dcs-000_dcs: dc = 114 mV        (38 %), step = 6 mV            (2 %)
    dcs-000_dcs: dc = 120 mV        (40 %), step = 6 mV            (2 %)
    dcs-000_dcs: dc = 126 mV        (42 %), step = 6 mV            (2 %)
    dcs-000_dcs: dc = 132 mV        (44 %), step = 6 mV            (2 %)
    dcs-000_dcs: dc = 138 mV        (46 %), step = 6 mV            (2 %)
    dcs-000_dcs: dc = 144 mV        (48 %), step = 6 mV            (2 %)
    dcs-000_dcs: dc = 150 mV        (50 %), step = 6 mV            (2 %)

Notice from spectre at dc = 156 mV during DC analysis `dcs-000_dcs', during task `MDLControl'.
    GminDC = 1 pS is large enough to noticeably affect the DC solution.
        dV(I23.PM2:int_d) = 51.1196 uV
        Use the `gmin_check' option to eliminate or expand this report.

    dcs-000_dcs: dc = 156 mV        (52 %), step = 6 mV            (2 %)

Notice from spectre at dc = 162 mV during DC analysis `dcs-000_dcs', during task `MDLControl'.
    GminDC = 1 pS is large enough to noticeably affect the DC solution.
        dV(I23.PM2:int_d) = 30.7297 uV
        Use the `gmin_check' option to eliminate or expand this report.

    dcs-000_dcs: dc = 162 mV        (54 %), step = 6 mV            (2 %)

Notice from spectre at dc = 168 mV during DC analysis `dcs-000_dcs', during task `MDLControl'.
    GminDC = 1 pS is large enough to noticeably affect the DC solution.
        dV(I23.PM2:int_d) = 21.6729 uV
        Use the `gmin_check' option to eliminate or expand this report.

    dcs-000_dcs: dc = 168 mV        (56 %), step = 6 mV            (2 %)

Notice from spectre at dc = 174 mV during DC analysis `dcs-000_dcs', during task `MDLControl'.
    GminDC = 1 pS is large enough to noticeably affect the DC solution.
        dV(I23.PM2:int_d) = 16.4131 uV
        Use the `gmin_check' option to eliminate or expand this report.

    dcs-000_dcs: dc = 174 mV        (58 %), step = 6 mV            (2 %)

Notice from spectre at dc = 180 mV during DC analysis `dcs-000_dcs', during task `MDLControl'.
    GminDC = 1 pS is large enough to noticeably affect the DC solution.
        Further occurrences of this notice will be suppressed.
        dV(I23.PM2:int_d) = 12.8644 uV
        Further occurrences of this notice will be suppressed.
        Use the `gmin_check' option to eliminate or expand this report.
        Further occurrences of this notice will be suppressed.

    dcs-000_dcs: dc = 180 mV        (60 %), step = 6 mV            (2 %)
    dcs-000_dcs: dc = 186 mV        (62 %), step = 6 mV            (2 %)
    dcs-000_dcs: dc = 192 mV        (64 %), step = 6 mV            (2 %)
    dcs-000_dcs: dc = 198 mV        (66 %), step = 6 mV            (2 %)
    dcs-000_dcs: dc = 204 mV        (68 %), step = 6 mV            (2 %)
    dcs-000_dcs: dc = 210 mV        (70 %), step = 6 mV            (2 %)
    dcs-000_dcs: dc = 216 mV        (72 %), step = 6 mV            (2 %)
    dcs-000_dcs: dc = 222 mV        (74 %), step = 6 mV            (2 %)
    dcs-000_dcs: dc = 228 mV        (76 %), step = 6 mV            (2 %)
    dcs-000_dcs: dc = 234 mV        (78 %), step = 6 mV            (2 %)
    dcs-000_dcs: dc = 240 mV        (80 %), step = 6 mV            (2 %)
    dcs-000_dcs: dc = 246 mV        (82 %), step = 6 mV            (2 %)
    dcs-000_dcs: dc = 252 mV        (84 %), step = 6 mV            (2 %)
    dcs-000_dcs: dc = 258 mV        (86 %), step = 6 mV            (2 %)
    dcs-000_dcs: dc = 264 mV        (88 %), step = 6 mV            (2 %)
    dcs-000_dcs: dc = 270 mV        (90 %), step = 6 mV            (2 %)
    dcs-000_dcs: dc = 276 mV        (92 %), step = 6 mV            (2 %)
    dcs-000_dcs: dc = 282 mV        (94 %), step = 6 mV            (2 %)
    dcs-000_dcs: dc = 288 mV        (96 %), step = 6 mV            (2 %)
    dcs-000_dcs: dc = 294 mV        (98 %), step = 6 mV            (2 %)
    dcs-000_dcs: dc = 300 mV       (100 %), step = 6 mV            (2 %)

Maximum value achieved for any signal of each quantity: 
V: V(IN) = 300 mV
I: I(V0:p) = 12.44 pA
DC simulation time: CPU = 13.999 ms, elapsed = 43.7961 ms.

Notice from spectre at dc = 300 mV during DC analysis `dcs-000_dcs', during task `MDLControl'.
    The value of parameter 'dc' has been reset to the original value 0.

Total time required for dc analysis `dcs-000_dcs': CPU = 13.999 ms, elapsed = 43.8399 ms.
Time accumulated: CPU = 8.12976 s, elapsed = 11.5771 s.
Peak resident memory used = 231 Mbytes.


Notice from spectre during task `MDLControl'.
    12 notices suppressed.


Aggregate audit (9:26:35 AM, Tue Dec 21, 2021):
Time used: CPU = 8.26 s, elapsed = 11.8 s, util. = 70%.
Time spent in licensing: elapsed = 216 ms.
Peak memory used = 232 Mbytes.
Simulation started at: 9:26:23 AM, Tue Dec 21, 2021, ended at: 9:26:35 AM, Tue Dec 21, 2021, with elapsed time (wall clock): 11.8 s.
spectre completes with 0 errors, 88 warnings, and 500 notices.
