Spectre command line:spectre -64 -plugin /home/installs/LIBERATE192/lib/lnx86_64_2.6/libSki.so +multiple -cp -ss -l -f nutascii +lqt 0 +libtkn 0001208F0F964DEB4DDB67C73FE609F74FDE77D55BF946F37BD5279610F747F509CF6EC154DA12934B9F70D7629B49EA4ECE0BD3368335D8109B25EB159644D65A996F953AED25A20AD079D119DF75F437E975D9038439E368A824E078E877A20EE943E135B959920DD979D11B8977A237E979D11B8977A237E919764B4C2767574E00003A83

Spectre (R) Circuit Simulator
Version 19.1.0.396.isr8 64bit -- 19 Jun 2020
Copyright (C) 1989-2020 Cadence Design Systems, Inc. All rights reserved
        worldwide. Cadence and Spectre are registered trademarks of Cadence
        Design Systems, Inc. All others are the property of their respective
        holders.

Includes RSA BSAFE(R) Cryptographic or Security Protocol Software from RSA
        Security, Inc.

User: VLSI_ANALOG   Host: cad19   HostID: 7F0100   PID: 31584
Memory  available: 786.3746 MB  physical: 3.9726 GB
Linux   : Red Hat Enterprise Linux Server release 6.9 (Santiago)
CPU Type: Intel(R) Core(TM) i5-2320 CPU @ 3.00GHz
All processors running at 1600.0 MHz
        Socket: Processors
        0:       0,  1,  2,  3
        
System load averages (1min, 5min, 15min) : 17.8 %, 7.2 %, 3.5 %


Simulating `stdin' on cad19 at 11:48:45 AM, Fri May 21, 2021 (process id:
        31584).
Current working directory:
        /home/TSMC/Desktop/UMC180/Designkits/Cadence_6.1/lowpower/liberate/example/liberate/altos.cad19.T20210521114829619552S0030735.0

Notice from spectre.
    Loading plugin '/home/installs/LIBERATE192/lib/lnx86_64_2.6/libSki.so' ...

Reading file:  /dev/shm/netlistdXEsJW
Reading file: 
        /home/installs/SPECTRE191/tools.lnx86/spectre/etc/configs/spectre.cfg
Time for NDB Parsing: CPU = 72.989 ms, elapsed = 10.0372 s.
Time accumulated: CPU = 240.962 ms, elapsed = 10.0372 s.
Peak resident memory used = 63.3 Mbytes.


Warning from spectre during hierarchy flattening.
    WARNING (SFE-102): "/dev/shm/netlistdXEsJW" 8: Parameter `effW', specified
        for model `p_18_mm' of primitive `bsim3v3', has been ignored because it
        is an invalid model parameter. Specify a valid model parameter and
        rerun the simulation. Type `spectre -h bsim3v3' to get more information
        on valid model parameters.
    WARNING (SFE-102): "/dev/shm/netlistdXEsJW" 9: Parameter `effW', specified
        for model `p_18_mm' of primitive `bsim3v3', has been ignored because it
        is an invalid model parameter. Specify a valid model parameter and
        rerun the simulation. Type `spectre -h bsim3v3' to get more information
        on valid model parameters.
    WARNING (SFE-102): "/dev/shm/netlistdXEsJW" 10: Parameter `effW', specified
        for model `p_18_mm' of primitive `bsim3v3', has been ignored because it
        is an invalid model parameter. Specify a valid model parameter and
        rerun the simulation. Type `spectre -h bsim3v3' to get more information
        on valid model parameters.
    WARNING (SFE-102): "/dev/shm/netlistdXEsJW" 11: Parameter `effW', specified
        for model `p_18_mm' of primitive `bsim3v3', has been ignored because it
        is an invalid model parameter. Specify a valid model parameter and
        rerun the simulation. Type `spectre -h bsim3v3' to get more information
        on valid model parameters.
    WARNING (SFE-102): "/dev/shm/netlistdXEsJW" 12: Parameter `effW', specified
        for model `p_18_mm' of primitive `bsim3v3', has been ignored because it
        is an invalid model parameter. Specify a valid model parameter and
        rerun the simulation. Type `spectre -h bsim3v3' to get more information
        on valid model parameters.
        Further occurrences of this warning will be suppressed.

Time for Elaboration: CPU = 20.997 ms, elapsed = 20.9219 ms.
Time accumulated: CPU = 261.959 ms, elapsed = 10.0583 s.
Peak resident memory used = 71.1 Mbytes.


Notice from spectre during hierarchy flattening.
    MavD28_9_unmatched_0: Terminals are not distinct.
    MavD28_7_unmatched_0: Terminals are not distinct.


Time for EDB Visiting: CPU = 1.000000e-03 s, elapsed = 9.591579e-04 s.
Time accumulated: CPU = 2.629590e-01 s, elapsed = 1.005937e+01 s.
Peak resident memory used = 7.20e+07 bytes.


Warning from spectre during initial setup.
    WARNING (CMI-2426): MavD28_8_unmatched_0: `Cdscd' = -2.883000e-05 is
        negative.
    WARNING (CMI-2426): MavD28_10_unmatched_0: `Cdscd' = -2.883000e-05 is
        negative.
    WARNING (CMI-2426): MavD28_9_unmatched_0: `Cdscd' = -2.883000e-05 is
        negative.
    WARNING (CMI-2426): M5_0: `Pdiblc2' = -3.448185e-02 is negative.
    WARNING (CMI-2426): M5_0: `Cdscd' = -5.000000e-04 is negative.
        Further occurrences of this warning will be suppressed.
Notice from spectre during topology check.
    No DC path from node `avC10' to ground, Gmin installed to provide path.


Global user options:
               temp = 25
           autostop = spice
             digits = 6
            measdgt = 6
           notation = sci
             ingold = sci
               save = nooutput

Scoped user options:

Circuit inventory:
              nodes 9
            bsim3v3 16    
          capacitor 35    
            vsource 4     

Analysis and control statement inventory:
               tran 1     

Output statements:
             .probe 0     
           .measure 0     
               save 0     


Notice from spectre.
    20 warnings suppressed.


*************************************************************************
Transient Analysis `timeSweep': time = (0.000000e+00 s -> 4.800000e-07 s)
*************************************************************************

Notice from spectre during IC analysis, during transient analysis `timeSweep'.
    There are 1 IC nodes defined.
    GminDC = 1.000000e-12 S is large enough to noticeably affect the DC
        solution.
        dV(net28#3) = -2.754690e-03 V
        Use the `gmin_check' option to eliminate or expand this report.

DC simulation time: CPU = 2.000000e-03 s, elapsed = 1.580954e-03 s.
Important parameter values:
    start = 0.000000e+00 s
    outputstart = 0.000000e+00 s
    stop = 4.800000e-07 s
    step = 1.000000e-12 s
    maxstep = 9.600000e-09 s
    ic = all
    useprevic = no
    skipdc = no
    reltol = 1.000000e-03
    abstol(V) = 1.000000e-06 V
    abstol(I) = 1.000000e-12 A
    temp = 2.500000e+01 C
    tnom = 2.700000e+01 C
    tempeffects = all
    errpreset = moderate
    method = traponly
    lteratio = 3.500000e+00
    relref = sigglobal
    cmin = 0.000000e+00 F
    gmin = 1.000000e-12 S


Output and IC/nodeset summary:
                 ic     1       
                 nodeset        2       

......9......8......7......6......5..

Notice from spectre at time = 2.654693e-07 s during transient analysis
        `timeSweep'.
    Found trapezoidal ringing on node VVDD:p.

......9......8......7......6......5....

Notice from spectre at time = 2.750693e-07 s during transient analysis
        `timeSweep'.
    Found trapezoidal ringing on node VVDD:p.

......9......8......7......6......5.....

Notice from spectre at time = 2.846693e-07 s during transient analysis
        `timeSweep'.
    Found trapezoidal ringing on node VVDD:p.

......9......8......7......6......5......4

Notice from spectre at time = 2.942693e-07 s during transient analysis
        `timeSweep'.
    Found trapezoidal ringing on node VVDD:p.

......9......8......7......6......5......4.

Notice from spectre at time = 3.038693e-07 s during transient analysis
        `timeSweep'.
    Found trapezoidal ringing on node VVDD:p.
        Further occurrences of this notice will be suppressed.

......9......8......7......6......5......4......3......2......1......0
Number of accepted tran steps =             78

Notice from spectre during transient analysis `timeSweep'.
    Trapezoidal ringing is detected during tran analysis.
        Please use method=trap for better results and performance.


Maximum value achieved for any signal of each quantity: 
V: V(net31#5) = 4.351e-01 V
I: I(Va#10:p) = 4.542e-05 A
If your circuit contains signals of the same quantity that are vastly different
        in size (such as high voltage circuitry combined with low voltage
        control circuitry), you should consider specifying global option
        `bin_relref=yes'.

~~~~~~~~~~~~~~~~~~~~~~~~~~~~~~~~~
Post-Transient Simulation Summary
~~~~~~~~~~~~~~~~~~~~~~~~~~~~~~~~~
   -   To further speed up simulation, consider
          add ++aps on command line
~~~~~~~~~~~~~~~~~~~~~~~~~~~~~~~~~


During simulation, the CPU load for active processors is :
         0 (8.8 %)       1 (11.6 %)      2 (3.2 %)       3 (2.5 %)
        Total: 26.1%
Initial condition solution time: CPU = 2.000000e-03 s, elapsed = 1.744032e-03
        s.
Intrinsic tran analysis time:    CPU = 1.299800e-02 s, elapsed = 1.254606e-02
        s.
Total time required for tran analysis `timeSweep': CPU = 1.499800e-02 s,
        elapsed = 2.342105e-02 s.
Time accumulated: CPU = 2.849560e-01 s, elapsed = 1.011148e+01 s.
Peak resident memory used = 7.50e+07 bytes.


Notice from spectre.
    19 notices suppressed.

Reading file:  /dev/shm/netlistVGUblf
Time for NDB Parsing: CPU = 3.999000e-03 s, elapsed = 4.261017e-03 s.
Time accumulated: CPU = 2.889550e-01 s, elapsed = 1.011582e+01 s.
Peak resident memory used = 7.57e+07 bytes.


Warning from spectre during hierarchy flattening.
    WARNING (SFE-102): "/dev/shm/netlistVGUblf" 8: Parameter `effW', specified
        for model `p_18_mm' of primitive `bsim3v3', has been ignored because it
        is an invalid model parameter. Specify a valid model parameter and
        rerun the simulation. Type `spectre -h bsim3v3' to get more information
        on valid model parameters.
    WARNING (SFE-102): "/dev/shm/netlistVGUblf" 9: Parameter `effW', specified
        for model `p_18_mm' of primitive `bsim3v3', has been ignored because it
        is an invalid model parameter. Specify a valid model parameter and
        rerun the simulation. Type `spectre -h bsim3v3' to get more information
        on valid model parameters.
    WARNING (SFE-102): "/dev/shm/netlistVGUblf" 10: Parameter `effW', specified
        for model `p_18_mm' of primitive `bsim3v3', has been ignored because it
        is an invalid model parameter. Specify a valid model parameter and
        rerun the simulation. Type `spectre -h bsim3v3' to get more information
        on valid model parameters.
    WARNING (SFE-102): "/dev/shm/netlistVGUblf" 11: Parameter `effW', specified
        for model `p_18_mm' of primitive `bsim3v3', has been ignored because it
        is an invalid model parameter. Specify a valid model parameter and
        rerun the simulation. Type `spectre -h bsim3v3' to get more information
        on valid model parameters.
    WARNING (SFE-102): "/dev/shm/netlistVGUblf" 12: Parameter `effW', specified
        for model `p_18_mm' of primitive `bsim3v3', has been ignored because it
        is an invalid model parameter. Specify a valid model parameter and
        rerun the simulation. Type `spectre -h bsim3v3' to get more information
        on valid model parameters.
        Further occurrences of this warning will be suppressed.

Time for Elaboration: CPU = 2.000000e-03 s, elapsed = 1.817942e-03 s.
Time accumulated: CPU = 2.909550e-01 s, elapsed = 1.011774e+01 s.
Peak resident memory used = 7.57e+07 bytes.


Notice from spectre during hierarchy flattening.
    MavD28_9_unmatched_0: Terminals are not distinct.
    MavD28_7_unmatched_0: Terminals are not distinct.


Time for EDB Visiting: CPU = 1.000000e-03 s, elapsed = 6.809235e-04 s.
Time accumulated: CPU = 2.919550e-01 s, elapsed = 1.011852e+01 s.
Peak resident memory used = 7.57e+07 bytes.


Warning from spectre during initial setup.
    WARNING (CMI-2426): MavD28_8_unmatched_0: `Cdscd' = -2.883000e-05 is
        negative.
    WARNING (CMI-2426): MavD28_10_unmatched_0: `Cdscd' = -2.883000e-05 is
        negative.
    WARNING (CMI-2426): MavD28_9_unmatched_0: `Cdscd' = -2.883000e-05 is
        negative.
    WARNING (CMI-2426): M5_0: `Pdiblc2' = -3.448185e-02 is negative.
    WARNING (CMI-2426): M5_0: `Cdscd' = -5.000000e-04 is negative.
        Further occurrences of this warning will be suppressed.
Notice from spectre during topology check.
    No DC path from node `avC10' to ground, Gmin installed to provide path.


Global user options:
               temp = 25
           autostop = spice
             digits = 6
            measdgt = 6
           notation = sci
             ingold = sci
               save = nooutput

Scoped user options:

Circuit inventory:
              nodes 9
            bsim3v3 16    
          capacitor 35    
            vsource 4     

Analysis and control statement inventory:
               tran 1     

Output statements:
             .probe 0     
           .measure 0     
               save 0     


Notice from spectre.
    20 warnings suppressed.


*************************************************************************
Transient Analysis `timeSweep': time = (0.000000e+00 s -> 4.800000e-07 s)
*************************************************************************

Notice from spectre during IC analysis, during transient analysis `timeSweep'.
    There are 1 IC nodes defined.
    GminDC = 1.000000e-12 S is large enough to noticeably affect the DC
        solution.
        dV(net28#3) = -2.754839e-03 V
        Use the `gmin_check' option to eliminate or expand this report.

DC simulation time: CPU = 0.000000e+00 s, elapsed = 6.418228e-04 s.
Important parameter values:
    start = 0.000000e+00 s
    outputstart = 0.000000e+00 s
    stop = 4.800000e-07 s
    step = 1.000000e-12 s
    maxstep = 9.600000e-09 s
    ic = all
    useprevic = no
    skipdc = no
    reltol = 1.000000e-03
    abstol(V) = 1.000000e-06 V
    abstol(I) = 1.000000e-12 A
    temp = 2.500000e+01 C
    tnom = 2.700000e+01 C
    tempeffects = all
    errpreset = moderate
    method = traponly
    lteratio = 3.500000e+00
    relref = sigglobal
    cmin = 0.000000e+00 F
    gmin = 1.000000e-12 S


Output and IC/nodeset summary:
                 ic     1       
                 nodeset        2       

......9......8......7......6......5......4......3......2......1......0
Number of accepted tran steps =             74

Maximum value achieved for any signal of each quantity: 
V: V(y) = 3.067e-01 V
I: I(Vb#10:p) = 3.378e-05 A
If your circuit contains signals of the same quantity that are vastly different
        in size (such as high voltage circuitry combined with low voltage
        control circuitry), you should consider specifying global option
        `bin_relref=yes'.

~~~~~~~~~~~~~~~~~~~~~~~~~~~~~~~~~
Post-Transient Simulation Summary
~~~~~~~~~~~~~~~~~~~~~~~~~~~~~~~~~
   -   To further speed up simulation, consider
          add ++aps on command line
~~~~~~~~~~~~~~~~~~~~~~~~~~~~~~~~~


During simulation, the CPU load for active processors is :
         0 (8.7 %)       1 (11.6 %)      2 (3.4 %)       3 (2.5 %)
        Total: 26.2%
Initial condition solution time: CPU = 0.000000e+00 s, elapsed = 6.718636e-04
        s.
Intrinsic tran analysis time:    CPU = 7.999000e-03 s, elapsed = 7.376909e-03
        s.
Total time required for tran analysis `timeSweep': CPU = 8.999000e-03 s,
        elapsed = 8.429050e-03 s.
Time accumulated: CPU = 3.019530e-01 s, elapsed = 1.012821e+01 s.
Peak resident memory used = 7.57e+07 bytes.

Reading file:  /dev/shm/netlistWCPs0x
Time for NDB Parsing: CPU = 4.000000e-03 s, elapsed = 4.978895e-03 s.
Time accumulated: CPU = 3.059530e-01 s, elapsed = 1.013326e+01 s.
Peak resident memory used = 7.59e+07 bytes.


Warning from spectre during hierarchy flattening.
    WARNING (SFE-102): "/dev/shm/netlistWCPs0x" 8: Parameter `effW', specified
        for model `p_18_mm' of primitive `bsim3v3', has been ignored because it
        is an invalid model parameter. Specify a valid model parameter and
        rerun the simulation. Type `spectre -h bsim3v3' to get more information
        on valid model parameters.
    WARNING (SFE-102): "/dev/shm/netlistWCPs0x" 9: Parameter `effW', specified
        for model `p_18_mm' of primitive `bsim3v3', has been ignored because it
        is an invalid model parameter. Specify a valid model parameter and
        rerun the simulation. Type `spectre -h bsim3v3' to get more information
        on valid model parameters.
    WARNING (SFE-102): "/dev/shm/netlistWCPs0x" 10: Parameter `effW', specified
        for model `p_18_mm' of primitive `bsim3v3', has been ignored because it
        is an invalid model parameter. Specify a valid model parameter and
        rerun the simulation. Type `spectre -h bsim3v3' to get more information
        on valid model parameters.
    WARNING (SFE-102): "/dev/shm/netlistWCPs0x" 11: Parameter `effW', specified
        for model `p_18_mm' of primitive `bsim3v3', has been ignored because it
        is an invalid model parameter. Specify a valid model parameter and
        rerun the simulation. Type `spectre -h bsim3v3' to get more information
        on valid model parameters.
    WARNING (SFE-102): "/dev/shm/netlistWCPs0x" 12: Parameter `effW', specified
        for model `p_18_mm' of primitive `bsim3v3', has been ignored because it
        is an invalid model parameter. Specify a valid model parameter and
        rerun the simulation. Type `spectre -h bsim3v3' to get more information
        on valid model parameters.
        Further occurrences of this warning will be suppressed.

Time for Elaboration: CPU = 1.999000e-03 s, elapsed = 1.821041e-03 s.
Time accumulated: CPU = 3.079520e-01 s, elapsed = 1.013518e+01 s.
Peak resident memory used = 7.59e+07 bytes.


Notice from spectre during hierarchy flattening.
    MavD28_9_unmatched_0: Terminals are not distinct.
    MavD28_7_unmatched_0: Terminals are not distinct.


Time for EDB Visiting: CPU = 0.000000e+00 s, elapsed = 6.999969e-04 s.
Time accumulated: CPU = 3.079520e-01 s, elapsed = 1.013597e+01 s.
Peak resident memory used = 7.59e+07 bytes.


Warning from spectre during initial setup.
    WARNING (CMI-2426): MavD28_8_unmatched_0: `Cdscd' = -2.883000e-05 is
        negative.
    WARNING (CMI-2426): MavD28_10_unmatched_0: `Cdscd' = -2.883000e-05 is
        negative.
    WARNING (CMI-2426): MavD28_9_unmatched_0: `Cdscd' = -2.883000e-05 is
        negative.
    WARNING (CMI-2426): M5_0: `Pdiblc2' = -3.448185e-02 is negative.
    WARNING (CMI-2426): M5_0: `Cdscd' = -5.000000e-04 is negative.
        Further occurrences of this warning will be suppressed.
Notice from spectre during topology check.
    No DC path from node `avC10' to ground, Gmin installed to provide path.


Global user options:
               temp = 25
           autostop = spice
             digits = 6
            measdgt = 6
           notation = sci
             ingold = sci
               save = nooutput

Scoped user options:

Circuit inventory:
              nodes 9
            bsim3v3 16    
          capacitor 35    
            vsource 4     

Analysis and control statement inventory:
               tran 1     

Output statements:
             .probe 0     
           .measure 0     
               save 0     


Notice from spectre.
    20 warnings suppressed.


*************************************************************************
Transient Analysis `timeSweep': time = (0.000000e+00 s -> 4.800000e-07 s)
*************************************************************************

Notice from spectre during IC analysis, during transient analysis `timeSweep'.
    There are 1 IC nodes defined.
    GminDC = 1.000000e-12 S is large enough to noticeably affect the DC
        solution.
        dV(net28#3) = -2.754690e-03 V
        Use the `gmin_check' option to eliminate or expand this report.

DC simulation time: CPU = 0.000000e+00 s, elapsed = 6.239414e-04 s.
Important parameter values:
    start = 0.000000e+00 s
    outputstart = 0.000000e+00 s
    stop = 4.800000e-07 s
    step = 1.000000e-12 s
    maxstep = 9.600000e-09 s
    ic = all
    useprevic = no
    skipdc = no
    reltol = 1.000000e-03
    abstol(V) = 1.000000e-06 V
    abstol(I) = 1.000000e-12 A
    temp = 2.500000e+01 C
    tnom = 2.700000e+01 C
    tempeffects = all
    errpreset = moderate
    method = traponly
    lteratio = 3.500000e+00
    relref = sigglobal
    cmin = 0.000000e+00 F
    gmin = 1.000000e-12 S


Output and IC/nodeset summary:
                 ic     1       
                 nodeset        2       

......9......8......7......6......5......4......3......2......1......0
Number of accepted tran steps =             75

Maximum value achieved for any signal of each quantity: 
V: V(y) = 3.039e-01 V
I: I(Vb#10:p) = 3.377e-05 A
If your circuit contains signals of the same quantity that are vastly different
        in size (such as high voltage circuitry combined with low voltage
        control circuitry), you should consider specifying global option
        `bin_relref=yes'.

~~~~~~~~~~~~~~~~~~~~~~~~~~~~~~~~~
Post-Transient Simulation Summary
~~~~~~~~~~~~~~~~~~~~~~~~~~~~~~~~~
   -   To further speed up simulation, consider
          add ++aps on command line
~~~~~~~~~~~~~~~~~~~~~~~~~~~~~~~~~


During simulation, the CPU load for active processors is :
         0 (8.7 %)       1 (11.6 %)      2 (3.6 %)       3 (2.6 %)
        Total: 26.6%
Initial condition solution time: CPU = 0.000000e+00 s, elapsed = 6.539822e-04
        s.
Intrinsic tran analysis time:    CPU = 6.999000e-03 s, elapsed = 7.416964e-03
        s.
Total time required for tran analysis `timeSweep': CPU = 7.999000e-03 s,
        elapsed = 8.441925e-03 s.
Time accumulated: CPU = 3.179510e-01 s, elapsed = 1.014566e+01 s.
Peak resident memory used = 7.59e+07 bytes.

Reading file:  /dev/shm/netlistgowBJQ
Time for NDB Parsing: CPU = 3.999000e-03 s, elapsed = 6.601095e-03 s.
Time accumulated: CPU = 3.219500e-01 s, elapsed = 1.015233e+01 s.
Peak resident memory used = 7.59e+07 bytes.


Warning from spectre during hierarchy flattening.
    WARNING (SFE-102): "/dev/shm/netlistgowBJQ" 8: Parameter `effW', specified
        for model `p_18_mm' of primitive `bsim3v3', has been ignored because it
        is an invalid model parameter. Specify a valid model parameter and
        rerun the simulation. Type `spectre -h bsim3v3' to get more information
        on valid model parameters.
    WARNING (SFE-102): "/dev/shm/netlistgowBJQ" 9: Parameter `effW', specified
        for model `p_18_mm' of primitive `bsim3v3', has been ignored because it
        is an invalid model parameter. Specify a valid model parameter and
        rerun the simulation. Type `spectre -h bsim3v3' to get more information
        on valid model parameters.
    WARNING (SFE-102): "/dev/shm/netlistgowBJQ" 10: Parameter `effW', specified
        for model `p_18_mm' of primitive `bsim3v3', has been ignored because it
        is an invalid model parameter. Specify a valid model parameter and
        rerun the simulation. Type `spectre -h bsim3v3' to get more information
        on valid model parameters.
    WARNING (SFE-102): "/dev/shm/netlistgowBJQ" 11: Parameter `effW', specified
        for model `p_18_mm' of primitive `bsim3v3', has been ignored because it
        is an invalid model parameter. Specify a valid model parameter and
        rerun the simulation. Type `spectre -h bsim3v3' to get more information
        on valid model parameters.
    WARNING (SFE-102): "/dev/shm/netlistgowBJQ" 12: Parameter `effW', specified
        for model `p_18_mm' of primitive `bsim3v3', has been ignored because it
        is an invalid model parameter. Specify a valid model parameter and
        rerun the simulation. Type `spectre -h bsim3v3' to get more information
        on valid model parameters.
        Further occurrences of this warning will be suppressed.

Time for Elaboration: CPU = 2.000000e-03 s, elapsed = 1.881838e-03 s.
Time accumulated: CPU = 3.239500e-01 s, elapsed = 1.015431e+01 s.
Peak resident memory used = 7.59e+07 bytes.


Notice from spectre during hierarchy flattening.
    MavD28_9_unmatched_0: Terminals are not distinct.
    MavD28_7_unmatched_0: Terminals are not distinct.


Time for EDB Visiting: CPU = 1.000000e-03 s, elapsed = 8.218288e-04 s.
Time accumulated: CPU = 3.249500e-01 s, elapsed = 1.015525e+01 s.
Peak resident memory used = 7.59e+07 bytes.


Warning from spectre during initial setup.
    WARNING (CMI-2426): MavD28_8_unmatched_0: `Cdscd' = -2.883000e-05 is
        negative.
    WARNING (CMI-2426): MavD28_10_unmatched_0: `Cdscd' = -2.883000e-05 is
        negative.
    WARNING (CMI-2426): MavD28_9_unmatched_0: `Cdscd' = -2.883000e-05 is
        negative.
    WARNING (CMI-2426): M5_0: `Pdiblc2' = -3.448185e-02 is negative.
    WARNING (CMI-2426): M5_0: `Cdscd' = -5.000000e-04 is negative.
        Further occurrences of this warning will be suppressed.
Notice from spectre during topology check.
    No DC path from node `avC10' to ground, Gmin installed to provide path.


Global user options:
               temp = 25
           autostop = spice
             digits = 6
            measdgt = 6
           notation = sci
             ingold = sci
               save = nooutput

Scoped user options:

Circuit inventory:
              nodes 9
            bsim3v3 16    
          capacitor 35    
            vsource 4     

Analysis and control statement inventory:
               tran 1     

Output statements:
             .probe 0     
           .measure 0     
               save 0     


Notice from spectre.
    20 warnings suppressed.


*************************************************************************
Transient Analysis `timeSweep': time = (0.000000e+00 s -> 4.800000e-07 s)
*************************************************************************

Notice from spectre during IC analysis, during transient analysis `timeSweep'.
    There are 1 IC nodes defined.
    GminDC = 1.000000e-12 S is large enough to noticeably affect the DC
        solution.
        dV(net29) = 8.841463e-04 V
        Use the `gmin_check' option to eliminate or expand this report.

DC simulation time: CPU = 0.000000e+00 s, elapsed = 6.101131e-04 s.
Important parameter values:
    start = 0.000000e+00 s
    outputstart = 0.000000e+00 s
    stop = 4.800000e-07 s
    step = 1.000000e-12 s
    maxstep = 9.600000e-09 s
    ic = all
    useprevic = no
    skipdc = no
    reltol = 1.000000e-03
    abstol(V) = 1.000000e-06 V
    abstol(I) = 1.000000e-12 A
    temp = 2.500000e+01 C
    tnom = 2.700000e+01 C
    tempeffects = all
    errpreset = moderate
    method = traponly
    lteratio = 3.500000e+00
    relref = sigglobal
    cmin = 0.000000e+00 F
    gmin = 1.000000e-12 S


Output and IC/nodeset summary:
                 ic     1       
                 nodeset        2       

......9......8......7...

Notice from spectre at time = 1.762482e-07 s during transient analysis
        `timeSweep'.
    Found trapezoidal ringing on node VVDD:p.

......9......8......7.....

Notice from spectre at time = 1.858482e-07 s during transient analysis
        `timeSweep'.
    Found trapezoidal ringing on node VVDD:p.

......9......8......7......

Notice from spectre at time = 1.954482e-07 s during transient analysis
        `timeSweep'.
    Found trapezoidal ringing on node VVDD:p.

......9......8......7......6.

Notice from spectre at time = 2.050482e-07 s during transient analysis
        `timeSweep'.
    Found trapezoidal ringing on node VVDD:p.

......9......8......7......6..

Notice from spectre at time = 2.146482e-07 s during transient analysis
        `timeSweep'.
    Found trapezoidal ringing on node VVDD:p.
        Further occurrences of this notice will be suppressed.

......9......8......7......6......5......4......3......2......1......0
Number of accepted tran steps =             75

Notice from spectre during transient analysis `timeSweep'.
    Trapezoidal ringing is detected during tran analysis.
        Please use method=trap for better results and performance.


Maximum value achieved for any signal of each quantity: 
V: V(net31#5) = 4.385e-01 V
I: I(Va#10:p) = 4.502e-05 A
If your circuit contains signals of the same quantity that are vastly different
        in size (such as high voltage circuitry combined with low voltage
        control circuitry), you should consider specifying global option
        `bin_relref=yes'.

~~~~~~~~~~~~~~~~~~~~~~~~~~~~~~~~~
Post-Transient Simulation Summary
~~~~~~~~~~~~~~~~~~~~~~~~~~~~~~~~~
   -   To further speed up simulation, consider
          add ++aps on command line
~~~~~~~~~~~~~~~~~~~~~~~~~~~~~~~~~


During simulation, the CPU load for active processors is :
         0 (8.7 %)       1 (11.6 %)      2 (3.7 %)       3 (2.6 %)
        Total: 26.6%
Initial condition solution time: CPU = 0.000000e+00 s, elapsed = 6.449223e-04
        s.
Intrinsic tran analysis time:    CPU = 8.998000e-03 s, elapsed = 9.201050e-03
        s.
Total time required for tran analysis `timeSweep': CPU = 9.998000e-03 s,
        elapsed = 1.027393e-02 s.
Time accumulated: CPU = 3.359480e-01 s, elapsed = 1.016699e+01 s.
Peak resident memory used = 7.59e+07 bytes.


Notice from spectre.
    28 notices suppressed.

Reading file:  /dev/shm/netlist7tnLw9
Time for NDB Parsing: CPU = 4.000000e-03 s, elapsed = 5.113840e-03 s.
Time accumulated: CPU = 3.409470e-01 s, elapsed = 1.017217e+01 s.
Peak resident memory used = 7.60e+07 bytes.


Warning from spectre during hierarchy flattening.
    WARNING (SFE-102): "/dev/shm/netlist7tnLw9" 8: Parameter `effW', specified
        for model `p_18_mm' of primitive `bsim3v3', has been ignored because it
        is an invalid model parameter. Specify a valid model parameter and
        rerun the simulation. Type `spectre -h bsim3v3' to get more information
        on valid model parameters.
    WARNING (SFE-102): "/dev/shm/netlist7tnLw9" 9: Parameter `effW', specified
        for model `p_18_mm' of primitive `bsim3v3', has been ignored because it
        is an invalid model parameter. Specify a valid model parameter and
        rerun the simulation. Type `spectre -h bsim3v3' to get more information
        on valid model parameters.
    WARNING (SFE-102): "/dev/shm/netlist7tnLw9" 10: Parameter `effW', specified
        for model `p_18_mm' of primitive `bsim3v3', has been ignored because it
        is an invalid model parameter. Specify a valid model parameter and
        rerun the simulation. Type `spectre -h bsim3v3' to get more information
        on valid model parameters.
    WARNING (SFE-102): "/dev/shm/netlist7tnLw9" 11: Parameter `effW', specified
        for model `p_18_mm' of primitive `bsim3v3', has been ignored because it
        is an invalid model parameter. Specify a valid model parameter and
        rerun the simulation. Type `spectre -h bsim3v3' to get more information
        on valid model parameters.
    WARNING (SFE-102): "/dev/shm/netlist7tnLw9" 12: Parameter `effW', specified
        for model `p_18_mm' of primitive `bsim3v3', has been ignored because it
        is an invalid model parameter. Specify a valid model parameter and
        rerun the simulation. Type `spectre -h bsim3v3' to get more information
        on valid model parameters.
        Further occurrences of this warning will be suppressed.

Time for Elaboration: CPU = 2.000000e-03 s, elapsed = 1.861095e-03 s.
Time accumulated: CPU = 3.429470e-01 s, elapsed = 1.017413e+01 s.
Peak resident memory used = 7.60e+07 bytes.


Notice from spectre during hierarchy flattening.
    MavD28_9_unmatched_0: Terminals are not distinct.
    MavD28_7_unmatched_0: Terminals are not distinct.


Time for EDB Visiting: CPU = 0.000000e+00 s, elapsed = 6.880760e-04 s.
Time accumulated: CPU = 3.429470e-01 s, elapsed = 1.017491e+01 s.
Peak resident memory used = 7.60e+07 bytes.


Warning from spectre during initial setup.
    WARNING (CMI-2426): MavD28_8_unmatched_0: `Cdscd' = -2.883000e-05 is
        negative.
    WARNING (CMI-2426): MavD28_10_unmatched_0: `Cdscd' = -2.883000e-05 is
        negative.
    WARNING (CMI-2426): MavD28_9_unmatched_0: `Cdscd' = -2.883000e-05 is
        negative.
    WARNING (CMI-2426): M5_0: `Pdiblc2' = -3.448185e-02 is negative.
    WARNING (CMI-2426): M5_0: `Cdscd' = -5.000000e-04 is negative.
        Further occurrences of this warning will be suppressed.
Notice from spectre during topology check.
    No DC path from node `avC10' to ground, Gmin installed to provide path.


Global user options:
               temp = 25
           autostop = spice
             digits = 6
            measdgt = 6
           notation = sci
             ingold = sci
               save = nooutput

Scoped user options:

Circuit inventory:
              nodes 9
            bsim3v3 16    
          capacitor 35    
            vsource 4     

Analysis and control statement inventory:
               tran 1     

Output statements:
             .probe 0     
           .measure 0     
               save 0     


Notice from spectre.
    20 warnings suppressed.


*************************************************************************
Transient Analysis `timeSweep': time = (0.000000e+00 s -> 4.800000e-07 s)
*************************************************************************

Notice from spectre during IC analysis, during transient analysis `timeSweep'.
    There are 1 IC nodes defined.
    GminDC = 1.000000e-12 S is large enough to noticeably affect the DC
        solution.
        dV(net29) = -7.173503e-04 V
        Use the `gmin_check' option to eliminate or expand this report.

DC simulation time: CPU = 0.000000e+00 s, elapsed = 6.020069e-04 s.
Important parameter values:
    start = 0.000000e+00 s
    outputstart = 0.000000e+00 s
    stop = 4.800000e-07 s
    step = 1.000000e-12 s
    maxstep = 9.600000e-09 s
    ic = all
    useprevic = no
    skipdc = no
    reltol = 1.000000e-03
    abstol(V) = 1.000000e-06 V
    abstol(I) = 1.000000e-12 A
    temp = 2.500000e+01 C
    tnom = 2.700000e+01 C
    tempeffects = all
    errpreset = moderate
    method = traponly
    lteratio = 3.500000e+00
    relref = sigglobal
    cmin = 0.000000e+00 F
    gmin = 1.000000e-12 S


Output and IC/nodeset summary:
                 ic     1       
                 nodeset        2       

......9......8......7......6......5......4......3......2......1.

Notice from spectre at time = 4.481024e-07 s during transient analysis
        `timeSweep'.
    Found trapezoidal ringing on node Va#10:p.

......9......8......7......6......5......4......3......2......1..

Notice from spectre at time = 4.577024e-07 s during transient analysis
        `timeSweep'.
    Found trapezoidal ringing on node Va#10:p.

......9......8......7......6......5......4......3......2......1....

Notice from spectre at time = 4.673024e-07 s during transient analysis
        `timeSweep'.
    Found trapezoidal ringing on node Va#10:p.

......9......8......7......6......5......4......3......2......1.....

Notice from spectre at time = 4.736512e-07 s during transient analysis
        `timeSweep'.
    Found trapezoidal ringing on node Va#10:p.

......9......8......7......6......5......4......3......2......1......

Notice from spectre at time = 4.800000e-07 s during transient analysis
        `timeSweep'.
    Found trapezoidal ringing on node Va#10:p.
        Further occurrences of this notice will be suppressed.

......9......8......7......6......5......4......3......2......1......0
Number of accepted tran steps =             77

Notice from spectre during transient analysis `timeSweep'.
    Trapezoidal ringing is detected during tran analysis.
        Please use method=trap for better results and performance.


Maximum value achieved for any signal of each quantity: 
V: V(net12#16) = 3.043e-01 V
I: I(Va#10:p) = 4.598e-05 A
If your circuit contains signals of the same quantity that are vastly different
        in size (such as high voltage circuitry combined with low voltage
        control circuitry), you should consider specifying global option
        `bin_relref=yes'.

~~~~~~~~~~~~~~~~~~~~~~~~~~~~~~~~~
Post-Transient Simulation Summary
~~~~~~~~~~~~~~~~~~~~~~~~~~~~~~~~~
   -   To further speed up simulation, consider
          add ++aps on command line
~~~~~~~~~~~~~~~~~~~~~~~~~~~~~~~~~


During simulation, the CPU load for active processors is :
         0 (8.7 %)       1 (11.6 %)      2 (4.0 %)       3 (2.6 %)
        Total: 26.9%
Initial condition solution time: CPU = 0.000000e+00 s, elapsed = 6.310940e-04
        s.
Intrinsic tran analysis time:    CPU = 8.999000e-03 s, elapsed = 9.235144e-03
        s.
Total time required for tran analysis `timeSweep': CPU = 9.999000e-03 s,
        elapsed = 1.022887e-02 s.
Time accumulated: CPU = 3.549450e-01 s, elapsed = 1.018644e+01 s.
Peak resident memory used = 7.60e+07 bytes.

Reading file:  /dev/shm/netlistwgZ9ns
Time for NDB Parsing: CPU = 4.000000e-03 s, elapsed = 6.651878e-03 s.
Time accumulated: CPU = 3.589450e-01 s, elapsed = 1.019316e+01 s.
Peak resident memory used = 7.62e+07 bytes.


Warning from spectre during hierarchy flattening.
    WARNING (SFE-102): "/dev/shm/netlistwgZ9ns" 8: Parameter `effW', specified
        for model `p_18_mm' of primitive `bsim3v3', has been ignored because it
        is an invalid model parameter. Specify a valid model parameter and
        rerun the simulation. Type `spectre -h bsim3v3' to get more information
        on valid model parameters.
    WARNING (SFE-102): "/dev/shm/netlistwgZ9ns" 9: Parameter `effW', specified
        for model `p_18_mm' of primitive `bsim3v3', has been ignored because it
        is an invalid model parameter. Specify a valid model parameter and
        rerun the simulation. Type `spectre -h bsim3v3' to get more information
        on valid model parameters.
    WARNING (SFE-102): "/dev/shm/netlistwgZ9ns" 10: Parameter `effW', specified
        for model `p_18_mm' of primitive `bsim3v3', has been ignored because it
        is an invalid model parameter. Specify a valid model parameter and
        rerun the simulation. Type `spectre -h bsim3v3' to get more information
        on valid model parameters.
    WARNING (SFE-102): "/dev/shm/netlistwgZ9ns" 11: Parameter `effW', specified
        for model `p_18_mm' of primitive `bsim3v3', has been ignored because it
        is an invalid model parameter. Specify a valid model parameter and
        rerun the simulation. Type `spectre -h bsim3v3' to get more information
        on valid model parameters.
    WARNING (SFE-102): "/dev/shm/netlistwgZ9ns" 12: Parameter `effW', specified
        for model `p_18_mm' of primitive `bsim3v3', has been ignored because it
        is an invalid model parameter. Specify a valid model parameter and
        rerun the simulation. Type `spectre -h bsim3v3' to get more information
        on valid model parameters.
        Further occurrences of this warning will be suppressed.

Time for Elaboration: CPU = 1.999000e-03 s, elapsed = 2.171040e-03 s.
Time accumulated: CPU = 3.609440e-01 s, elapsed = 1.019545e+01 s.
Peak resident memory used = 7.62e+07 bytes.


Notice from spectre during hierarchy flattening.
    MavD28_9_unmatched_0: Terminals are not distinct.
    MavD28_7_unmatched_0: Terminals are not distinct.


Time for EDB Visiting: CPU = 1.000000e-03 s, elapsed = 8.299351e-04 s.
Time accumulated: CPU = 3.619440e-01 s, elapsed = 1.019640e+01 s.
Peak resident memory used = 7.62e+07 bytes.


Warning from spectre during initial setup.
    WARNING (CMI-2426): MavD28_8_unmatched_0: `Cdscd' = -2.883000e-05 is
        negative.
    WARNING (CMI-2426): MavD28_10_unmatched_0: `Cdscd' = -2.883000e-05 is
        negative.
    WARNING (CMI-2426): MavD28_9_unmatched_0: `Cdscd' = -2.883000e-05 is
        negative.
    WARNING (CMI-2426): M5_0: `Pdiblc2' = -3.448185e-02 is negative.
    WARNING (CMI-2426): M5_0: `Cdscd' = -5.000000e-04 is negative.
        Further occurrences of this warning will be suppressed.
Notice from spectre during topology check.
    No DC path from node `avC10' to ground, Gmin installed to provide path.


Global user options:
               temp = 25
           autostop = spice
             digits = 6
            measdgt = 6
           notation = sci
             ingold = sci
               save = nooutput

Scoped user options:

Circuit inventory:
              nodes 9
            bsim3v3 16    
          capacitor 35    
            vsource 4     

Analysis and control statement inventory:
               tran 1     

Output statements:
             .probe 0     
           .measure 0     
               save 0     


Notice from spectre.
    20 warnings suppressed.


*************************************************************************
Transient Analysis `timeSweep': time = (0.000000e+00 s -> 4.800000e-07 s)
*************************************************************************

Notice from spectre during IC analysis, during transient analysis `timeSweep'.
    There are 1 IC nodes defined.
    GminDC = 1.000000e-12 S is large enough to noticeably affect the DC
        solution.
        dV(net31#5) = 1.586452e-03 V
        Use the `gmin_check' option to eliminate or expand this report.

DC simulation time: CPU = 0.000000e+00 s, elapsed = 7.719994e-04 s.
Important parameter values:
    start = 0.000000e+00 s
    outputstart = 0.000000e+00 s
    stop = 4.800000e-07 s
    step = 1.000000e-12 s
    maxstep = 9.600000e-09 s
    ic = all
    useprevic = no
    skipdc = no
    reltol = 1.000000e-03
    abstol(V) = 1.000000e-06 V
    abstol(I) = 1.000000e-12 A
    temp = 2.500000e+01 C
    tnom = 2.700000e+01 C
    tempeffects = all
    errpreset = moderate
    method = traponly
    lteratio = 3.500000e+00
    relref = sigglobal
    cmin = 0.000000e+00 F
    gmin = 1.000000e-12 S


Output and IC/nodeset summary:
                 ic     1       
                 nodeset        2       

......9......8......7......6......5......4......3......2......1......

Notice from spectre at time = 4.800000e-07 s during transient analysis
        `timeSweep'.
    Found trapezoidal ringing on node Va#10:p.

......9......8......7......6......5......4......3......2......1......0
Number of accepted tran steps =             78

Notice from spectre during transient analysis `timeSweep'.
    Trapezoidal ringing is detected during tran analysis.
        Please use method=trap for better results and performance.


Maximum value achieved for any signal of each quantity: 
V: V(avC10) = 4.185e-01 V
I: I(Vb#10:p) = 3.378e-05 A
If your circuit contains signals of the same quantity that are vastly different
        in size (such as high voltage circuitry combined with low voltage
        control circuitry), you should consider specifying global option
        `bin_relref=yes'.

~~~~~~~~~~~~~~~~~~~~~~~~~~~~~~~~~
Post-Transient Simulation Summary
~~~~~~~~~~~~~~~~~~~~~~~~~~~~~~~~~
   -   To further speed up simulation, consider
          add ++aps on command line
~~~~~~~~~~~~~~~~~~~~~~~~~~~~~~~~~


During simulation, the CPU load for active processors is :
         0 (8.7 %)       1 (11.6 %)      2 (4.1 %)       3 (2.6 %)
        Total: 26.9%
Initial condition solution time: CPU = 0.000000e+00 s, elapsed = 8.089542e-04
        s.
Intrinsic tran analysis time:    CPU = 8.998000e-03 s, elapsed = 8.674860e-03
        s.
Total time required for tran analysis `timeSweep': CPU = 9.998000e-03 s,
        elapsed = 9.940147e-03 s.
Time accumulated: CPU = 3.729420e-01 s, elapsed = 1.020781e+01 s.
Peak resident memory used = 7.62e+07 bytes.

