
Spectre (R) Circuit Simulator
Version 19.1.0.396.isr8 64bit -- 19 Jun 2020
Copyright (C) 1989-2020 Cadence Design Systems, Inc. All rights reserved worldwide. Cadence and Spectre are registered trademarks of Cadence Design Systems, Inc. All others are the property of their respective holders.

Includes RSA BSAFE(R) Cryptographic or Security Protocol Software from RSA Security, Inc.

User: VLSI_ANALOG   Host: cad19   HostID: 7F0100   PID: 29108
Memory  available: 335.3968 MB  physical: 3.9726 GB
Linux   : Red Hat Enterprise Linux Server release 6.9 (Santiago)
CPU Type: Intel(R) Core(TM) i5-2320 CPU @ 3.00GHz
All processors running at 1600.0 MHz
        Socket: Processors
        0:       0,  1,  2,  3
        
System load averages (1min, 5min, 15min) : 4.5 %, 6.0 %, 3.0 %


Simulating `./input.scs' on cad19 at 3:00:46 PM, Fri Dec 10, 2021 (process id: 29108).
Current working directory: /home/VLSI_ANALOG/UMC180/Designkits/Cadence_6.1/lowpower28/spectremdl/new/DFF
Command line:
    /home/installs/SPECTRE191/tools.lnx86/bin/spectre -64 =mdl  \
        input.mdl ./input.scs

Loading /home/installs/SPECTRE191/tools.lnx86/cmi/lib/64bit/5.0/libinfineon_sh.so ...
Loading /home/installs/SPECTRE191/tools.lnx86/cmi/lib/64bit/5.0/libphilips_o_sh.so ...
Loading /home/installs/SPECTRE191/tools.lnx86/cmi/lib/64bit/5.0/libphilips_sh.so ...
Loading /home/installs/SPECTRE191/tools.lnx86/cmi/lib/64bit/5.0/libsparam_sh.so ...
Loading /home/installs/SPECTRE191/tools.lnx86/cmi/lib/64bit/5.0/libstmodels_sh.so ...
Loading /home/installs/SPECTRE191/tools.lnx86/spectre/lib/64bit/mdl/libSpectreEH_sh.so ...
Reading file:  /home/VLSI_ANALOG/UMC180/Designkits/Cadence_6.1/lowpower28/spectremdl/new/DFF/input.mdl
Reading file:  /home/VLSI_ANALOG/UMC180/Designkits/Cadence_6.1/lowpower28/spectremdl/new/DFF/input.scs
Reading file:  /home/installs/SPECTRE191/tools.lnx86/spectre/etc/configs/spectre.cfg
Reading file:  /home/VLSI_ANALOG/UMCLib/pdk/UMC/28/_G-01-LOGIC_MIXED_MODE28N-HPC/Designkits/Cadence_IC6/G-9FD-LOGIC_MIXED_MODE28N-HPC_UM028FDKHCC0000OA-FDK-Ver.A14_PB/UM028FDKHCC0000OA_A14_DESIGNKIT/UM028FDKHCC0000OA_A14_PB/Models/Spectre/l28hpc_mm_v1201.lib.scs
Reading file:  /home/VLSI_ANALOG/UMCLib/pdk/UMC/28/_G-01-LOGIC_MIXED_MODE28N-HPC/Designkits/Cadence_IC6/G-9FD-LOGIC_MIXED_MODE28N-HPC_UM028FDKHCC0000OA-FDK-Ver.A14_PB/UM028FDKHCC0000OA_A14_DESIGNKIT/UM028FDKHCC0000OA_A14_PB/Models/Spectre/l28hpc_rf_v017.lib.scs
Time for NDB Parsing: CPU = 4.65429 s, elapsed = 4.94547 s.
Time accumulated: CPU = 4.80027 s, elapsed = 4.94547 s.
Peak resident memory used = 206 Mbytes.


Warning from spectre during hierarchy flattening.
    WARNING (SFE-1131): Scope option `scalefactor' specified with scope `TopCircuit' at line `680' has also been specified at line `729' in file `/home/VLSI_ANALOG/UMCLib/pdk/UMC/28/_G-01-LOGIC_MIXED_MODE28N-HPC/Designkits/Cadence_IC6/G-9FD-LOGIC_MIXED_MODE28N-HPC_UM028FDKHCC0000OA-FDK-Ver.A14_PB/UM028FDKHCC0000OA_A14_DESIGNKIT/UM028FDKHCC0000OA_A14_PB/umc28hpc/../Models/Spectre/l28hpc_rf_v017.lib.scs'. As a result, the last specified value will be used for simulation.

Time for Elaboration: CPU = 75.989 ms, elapsed = 75.948 ms.
Time accumulated: CPU = 4.87626 s, elapsed = 5.0216 s.
Peak resident memory used = 219 Mbytes.


Warning from spectre during hierarchy flattening.
    WARNING (SPECTRE-17101): The value 'psf' specified for the 'checklimitdest' option will no longer be supported in future releases. Use 'spectre -h' to see other recommended values for the 'checklimitdest' option.


Time for EDB Visiting: CPU = 1.999 ms, elapsed = 1.72901 ms.
Time accumulated: CPU = 4.87826 s, elapsed = 5.02351 s.
Peak resident memory used = 220 Mbytes.


Global user options:
         psfversion = 1.4.0
            vabstol = 1e-06
            iabstol = 1e-12
               temp = 27
               gmin = 1e-12
             rforce = 1
           maxnotes = 5
           maxwarns = 5
             digits = 5
               cols = 80
             pivrel = 0.001
           sensfile = ../psf/sens.output
     checklimitdest = psf
               save = allpub
        scalefactor = 0.9
             reltol = 0.001
               tnom = 27
             scalem = 1
              scale = 1

Scoped user options:

Circuit inventory:
              nodes 17
              bsim4 26    
          capacitor 1     
              diode 13    
            vsource 3     

Analysis and control statement inventory:
               info 7     
               tran 1     

Output statements:
             .probe 0     
           .measure 0     
               save 0     

Time for parsing: CPU = 4 ms, elapsed = 86.8051 ms.
Time accumulated: CPU = 4.88226 s, elapsed = 5.11043 s.
Peak resident memory used = 222 Mbytes.

~~~~~~~~~~~~~~~~~~~~~~
Pre-Simulation Summary
~~~~~~~~~~~~~~~~~~~~~~
~~~~~~~~~~~~~~~~~~~~~~

************************************************
Transient Analysis `trans': time = (0 s -> 1 us)
************************************************

Notice from spectre during IC analysis, during transient analysis `trans', during task `MDLControl'.
    GminDC = 1 pS is large enough to noticeably affect the DC solution.
        dV(I19.NM10:int_d) = -727.531 uV
        Use the `gmin_check' option to eliminate or expand this report.

DC simulation time: CPU = 5.999 ms, elapsed = 6.00791 ms.

Opening the PSFXL file ./input.raw/trans.tran.tran ...
Important parameter values:
    start = 0 s
    outputstart = 0 s
    stop = 1 us
    step = 1 ns
    maxstep = 20 ns
    ic = all
    useprevic = no
    skipdc = no
    reltol = 1e-03
    abstol(V) = 1 uV
    abstol(I) = 1 pA
    temp = 27 C
    tnom = 27 C
    tempeffects = all
    errpreset = moderate
    method = traponly
    lteratio = 3.5
    relref = sigglobal
    cmin = 0 F
    gmin = 1 pS


Output and IC/nodeset summary:
                 save   1       (current)
                 save   17      (voltage)

......9......8......7......6......5......4......3......2......1......0
Number of accepted tran steps =             350

Maximum value achieved for any signal of each quantity: 
V: V(I19.PM15:int_d) = 375.9 mV
I: I(V0:p) = 11.66 uA
If your circuit contains signals of the same quantity that are vastly different in size (such as high voltage circuitry combined with low voltage control circuitry), you should consider specifying global option `bin_relref=yes'.

~~~~~~~~~~~~~~~~~~~~~~~~~~~~~~~~~
Post-Transient Simulation Summary
~~~~~~~~~~~~~~~~~~~~~~~~~~~~~~~~~
   -   To further speed up simulation, consider
          add ++aps on command line
~~~~~~~~~~~~~~~~~~~~~~~~~~~~~~~~~


During simulation, the CPU load for active processors is :
         0 (4.0 %)       1 (88.6 %)      3 (1.9 %)      
        Total: 95.3%
Initial condition solution time: CPU = 5.999 ms, elapsed = 6.06394 ms.
Intrinsic tran analysis time:    CPU = 153.975 ms, elapsed = 199.388 ms.
Total time required for tran analysis `trans': CPU = 163.974 ms, elapsed = 227.76 ms.
Time accumulated: CPU = 5.05323 s, elapsed = 5.3457 s.
Peak resident memory used = 226 Mbytes.


Warning from spectre.
    WARNING (SPECTRE-17101): The value 'psf' specified for the 'checklimitdest' option will no longer be supported in future releases. Use 'spectre -h' to see other recommended values for the 'checklimitdest' option.
    WARNING (SPECTRE-17101): The value 'psf' specified for the 'checklimitdest' option will no longer be supported in future releases. Use 'spectre -h' to see other recommended values for the 'checklimitdest' option.
    WARNING (SPECTRE-17101): The value 'psf' specified for the 'checklimitdest' option will no longer be supported in future releases. Use 'spectre -h' to see other recommended values for the 'checklimitdest' option.
    WARNING (SPECTRE-17101): The value 'psf' specified for the 'checklimitdest' option will no longer be supported in future releases. Use 'spectre -h' to see other recommended values for the 'checklimitdest' option.


Opening the PSF file ./input.raw/trans.optimize ...

**********************************************************
Transient Analysis `trans-000_trans': time = (0 s -> 1 us)
**********************************************************
DC simulation time: CPU = 3 ms, elapsed = 3.53312 ms.

Opening the PSFXL file ./input.raw/trans-000_trans.tran.tran ...
Important parameter values:
    start = 0 s
    outputstart = 0 s
    stop = 1 us
    step = 1 ns
    maxstep = 20 ns
    ic = all
    useprevic = no
    skipdc = no
    reltol = 1e-03
    abstol(V) = 1 uV
    abstol(I) = 1 pA
    temp = 27 C
    tnom = 27 C
    tempeffects = all
    errpreset = moderate
    method = traponly
    lteratio = 3.5
    relref = sigglobal
    cmin = 0 F
    gmin = 1 pS


Output and IC/nodeset summary:
                 save   1       (current)
                 save   17      (voltage)

......9......8......7......6......5......4......3......2......1......0
Number of accepted tran steps =             372

Maximum value achieved for any signal of each quantity: 
V: V(I19.PM16:int_d) = 372.1 mV
I: I(V0:p) = 18.79 uA
If your circuit contains signals of the same quantity that are vastly different in size (such as high voltage circuitry combined with low voltage control circuitry), you should consider specifying global option `bin_relref=yes'.

~~~~~~~~~~~~~~~~~~~~~~~~~~~~~~~~~
Post-Transient Simulation Summary
~~~~~~~~~~~~~~~~~~~~~~~~~~~~~~~~~
   -   To further speed up simulation, consider
          add ++aps on command line
~~~~~~~~~~~~~~~~~~~~~~~~~~~~~~~~~


During simulation, the CPU load for active processors is :
         0 (9.3 %)       1 (81.8 %)      3 (2.1 %)      
        Total: 94.1%
Initial condition solution time: CPU = 3 ms, elapsed = 3.58415 ms.
Intrinsic tran analysis time:    CPU = 160.975 ms, elapsed = 193.672 ms.
Total time required for tran analysis `trans-000_trans': CPU = 168.973 ms, elapsed = 201.968 ms.
Time accumulated: CPU = 5.34619 s, elapsed = 5.79867 s.
Peak resident memory used = 226 Mbytes.


Warning from spectre.
    WARNING (SPECTRE-17101): The value 'psf' specified for the 'checklimitdest' option will no longer be supported in future releases. Use 'spectre -h' to see other recommended values for the 'checklimitdest' option.


**********************************************************
Transient Analysis `trans-000_trans': time = (0 s -> 1 us)
**********************************************************
DC simulation time: CPU = 2 ms, elapsed = 2.65384 ms.

Opening the PSFXL file ./input.raw/trans-000_trans.tran.tran ...
Important parameter values:
    start = 0 s
    outputstart = 0 s
    stop = 1 us
    step = 1 ns
    maxstep = 20 ns
    ic = all
    useprevic = no
    skipdc = no
    reltol = 1e-03
    abstol(V) = 1 uV
    abstol(I) = 1 pA
    temp = 27 C
    tnom = 27 C
    tempeffects = all
    errpreset = moderate
    method = traponly
    lteratio = 3.5
    relref = sigglobal
    cmin = 0 F
    gmin = 1 pS


Output and IC/nodeset summary:
                 save   1       (current)
                 save   17      (voltage)

......9......8......7......6......5......4......3......2......1......0
Number of accepted tran steps =             372

Maximum value achieved for any signal of each quantity: 
V: V(I19.PM16:int_d) = 372.1 mV
I: I(V0:p) = 18.79 uA
If your circuit contains signals of the same quantity that are vastly different in size (such as high voltage circuitry combined with low voltage control circuitry), you should consider specifying global option `bin_relref=yes'.

~~~~~~~~~~~~~~~~~~~~~~~~~~~~~~~~~
Post-Transient Simulation Summary
~~~~~~~~~~~~~~~~~~~~~~~~~~~~~~~~~
   -   To further speed up simulation, consider
          add ++aps on command line
~~~~~~~~~~~~~~~~~~~~~~~~~~~~~~~~~


During simulation, the CPU load for active processors is :
         0 (12.4 %)      1 (78.9 %)      2 (1.0 %)       3 (2.0 %)
        Total: 94.3%
Initial condition solution time: CPU = 2 ms, elapsed = 2.69699 ms.
Intrinsic tran analysis time:    CPU = 158.976 ms, elapsed = 195.287 ms.
Total time required for tran analysis `trans-000_trans': CPU = 163.975 ms, elapsed = 200.534 ms.
Time accumulated: CPU = 5.53916 s, elapsed = 6.03033 s.
Peak resident memory used = 226 Mbytes.


Warning from spectre.
    WARNING (SPECTRE-17101): The value 'psf' specified for the 'checklimitdest' option will no longer be supported in future releases. Use 'spectre -h' to see other recommended values for the 'checklimitdest' option.
    WARNING (SPECTRE-17101): The value 'psf' specified for the 'checklimitdest' option will no longer be supported in future releases. Use 'spectre -h' to see other recommended values for the 'checklimitdest' option.


**********************************************************
Transient Analysis `trans-000_trans': time = (0 s -> 1 us)
**********************************************************
DC simulation time: CPU = 2.999 ms, elapsed = 3.00622 ms.

Opening the PSFXL file ./input.raw/trans-000_trans.tran.tran ...
Important parameter values:
    start = 0 s
    outputstart = 0 s
    stop = 1 us
    step = 1 ns
    maxstep = 20 ns
    ic = all
    useprevic = no
    skipdc = no
    reltol = 1e-03
    abstol(V) = 1 uV
    abstol(I) = 1 pA
    temp = 27 C
    tnom = 27 C
    tempeffects = all
    errpreset = moderate
    method = traponly
    lteratio = 3.5
    relref = sigglobal
    cmin = 0 F
    gmin = 1 pS


Output and IC/nodeset summary:
                 save   1       (current)
                 save   17      (voltage)

......9......8......7......6......5......4......3......2......1......0
Number of accepted tran steps =             372

Maximum value achieved for any signal of each quantity: 
V: V(I19.PM16:int_d) = 372.1 mV
I: I(V0:p) = 18.79 uA
If your circuit contains signals of the same quantity that are vastly different in size (such as high voltage circuitry combined with low voltage control circuitry), you should consider specifying global option `bin_relref=yes'.

~~~~~~~~~~~~~~~~~~~~~~~~~~~~~~~~~
Post-Transient Simulation Summary
~~~~~~~~~~~~~~~~~~~~~~~~~~~~~~~~~
   -   To further speed up simulation, consider
          add ++aps on command line
~~~~~~~~~~~~~~~~~~~~~~~~~~~~~~~~~


During simulation, the CPU load for active processors is :
         0 (13.1 %)      1 (78.3 %)      2 (1.1 %)       3 (1.9 %)
        Total: 94.4%
Initial condition solution time: CPU = 2.999 ms, elapsed = 3.08108 ms.
Intrinsic tran analysis time:    CPU = 157.976 ms, elapsed = 194.11 ms.
Total time required for tran analysis `trans-000_trans': CPU = 163.975 ms, elapsed = 200.078 ms.
Time accumulated: CPU = 5.76112 s, elapsed = 6.28883 s.
Peak resident memory used = 226 Mbytes.


Warning from spectre.
    WARNING (SPECTRE-17101): The value 'psf' specified for the 'checklimitdest' option will no longer be supported in future releases. Use 'spectre -h' to see other recommended values for the 'checklimitdest' option.
    WARNING (SPECTRE-17101): The value 'psf' specified for the 'checklimitdest' option will no longer be supported in future releases. Use 'spectre -h' to see other recommended values for the 'checklimitdest' option.


**********************************************************
Transient Analysis `trans-000_trans': time = (0 s -> 1 us)
**********************************************************
DC simulation time: CPU = 2 ms, elapsed = 2.68197 ms.

Opening the PSFXL file ./input.raw/trans-000_trans.tran.tran ...
Important parameter values:
    start = 0 s
    outputstart = 0 s
    stop = 1 us
    step = 1 ns
    maxstep = 20 ns
    ic = all
    useprevic = no
    skipdc = no
    reltol = 1e-03
    abstol(V) = 1 uV
    abstol(I) = 1 pA
    temp = 27 C
    tnom = 27 C
    tempeffects = all
    errpreset = moderate
    method = traponly
    lteratio = 3.5
    relref = sigglobal
    cmin = 0 F
    gmin = 1 pS


Output and IC/nodeset summary:
                 save   1       (current)
                 save   17      (voltage)

......9......8......7......6......5......4......3......2......1......0
Number of accepted tran steps =             372

Maximum value achieved for any signal of each quantity: 
V: V(I19.PM16:int_d) = 372.1 mV
I: I(V0:p) = 18.79 uA
If your circuit contains signals of the same quantity that are vastly different in size (such as high voltage circuitry combined with low voltage control circuitry), you should consider specifying global option `bin_relref=yes'.

~~~~~~~~~~~~~~~~~~~~~~~~~~~~~~~~~
Post-Transient Simulation Summary
~~~~~~~~~~~~~~~~~~~~~~~~~~~~~~~~~
   -   To further speed up simulation, consider
          add ++aps on command line
~~~~~~~~~~~~~~~~~~~~~~~~~~~~~~~~~


During simulation, the CPU load for active processors is :
         0 (15.3 %)      1 (76.2 %)      2 (1.1 %)       3 (1.9 %)
        Total: 94.5%
Initial condition solution time: CPU = 2 ms, elapsed = 2.72512 ms.
Intrinsic tran analysis time:    CPU = 158.976 ms, elapsed = 196.689 ms.
Total time required for tran analysis `trans-000_trans': CPU = 163.975 ms, elapsed = 201.99 ms.
Time accumulated: CPU = 5.98309 s, elapsed = 6.5488 s.
Peak resident memory used = 226 Mbytes.


Warning from spectre.
    WARNING (SPECTRE-17101): The value 'psf' specified for the 'checklimitdest' option will no longer be supported in future releases. Use 'spectre -h' to see other recommended values for the 'checklimitdest' option.
    WARNING (SPECTRE-17101): The value 'psf' specified for the 'checklimitdest' option will no longer be supported in future releases. Use 'spectre -h' to see other recommended values for the 'checklimitdest' option.


**********************************************************
Transient Analysis `trans-000_trans': time = (0 s -> 1 us)
**********************************************************
DC simulation time: CPU = 2.999 ms, elapsed = 2.69008 ms.

Opening the PSFXL file ./input.raw/trans-000_trans.tran.tran ...
Important parameter values:
    start = 0 s
    outputstart = 0 s
    stop = 1 us
    step = 1 ns
    maxstep = 20 ns
    ic = all
    useprevic = no
    skipdc = no
    reltol = 1e-03
    abstol(V) = 1 uV
    abstol(I) = 1 pA
    temp = 27 C
    tnom = 27 C
    tempeffects = all
    errpreset = moderate
    method = traponly
    lteratio = 3.5
    relref = sigglobal
    cmin = 0 F
    gmin = 1 pS


Output and IC/nodeset summary:
                 save   1       (current)
                 save   17      (voltage)

......9......8......7......6......5......4......3......2......1......0
Number of accepted tran steps =             372

Maximum value achieved for any signal of each quantity: 
V: V(I19.PM16:int_d) = 372 mV
I: I(V0:p) = 18.79 uA
If your circuit contains signals of the same quantity that are vastly different in size (such as high voltage circuitry combined with low voltage control circuitry), you should consider specifying global option `bin_relref=yes'.

~~~~~~~~~~~~~~~~~~~~~~~~~~~~~~~~~
Post-Transient Simulation Summary
~~~~~~~~~~~~~~~~~~~~~~~~~~~~~~~~~
   -   To further speed up simulation, consider
          add ++aps on command line
~~~~~~~~~~~~~~~~~~~~~~~~~~~~~~~~~


During simulation, the CPU load for active processors is :
         0 (18.0 %)      1 (73.3 %)      2 (1.3 %)       3 (1.8 %)
        Total: 94.5%
Initial condition solution time: CPU = 2.999 ms, elapsed = 2.73108 ms.
Intrinsic tran analysis time:    CPU = 155.977 ms, elapsed = 199.312 ms.
Total time required for tran analysis `trans-000_trans': CPU = 161.975 ms, elapsed = 204.641 ms.
Time accumulated: CPU = 6.20306 s, elapsed = 6.81302 s.
Peak resident memory used = 226 Mbytes.


Warning from spectre.
    WARNING (SPECTRE-17101): The value 'psf' specified for the 'checklimitdest' option will no longer be supported in future releases. Use 'spectre -h' to see other recommended values for the 'checklimitdest' option.
    WARNING (SPECTRE-17101): The value 'psf' specified for the 'checklimitdest' option will no longer be supported in future releases. Use 'spectre -h' to see other recommended values for the 'checklimitdest' option.
    WARNING (SPECTRE-17101): The value 'psf' specified for the 'checklimitdest' option will no longer be supported in future releases. Use 'spectre -h' to see other recommended values for the 'checklimitdest' option.


**********************************************************
Transient Analysis `trans-000_trans': time = (0 s -> 1 us)
**********************************************************
DC simulation time: CPU = 4 ms, elapsed = 3.61109 ms.

Opening the PSFXL file ./input.raw/trans-000_trans.tran.tran ...
Important parameter values:
    start = 0 s
    outputstart = 0 s
    stop = 1 us
    step = 1 ns
    maxstep = 20 ns
    ic = all
    useprevic = no
    skipdc = no
    reltol = 1e-03
    abstol(V) = 1 uV
    abstol(I) = 1 pA
    temp = 27 C
    tnom = 27 C
    tempeffects = all
    errpreset = moderate
    method = traponly
    lteratio = 3.5
    relref = sigglobal
    cmin = 0 F
    gmin = 1 pS


Output and IC/nodeset summary:
                 save   1       (current)
                 save   17      (voltage)

......9......8..

Notice from spectre at time = 248.888 ns during transient analysis `trans-000_trans', during task `MDLControl'.
    Found trapezoidal ringing on node I19.NM1:int_d.

......9......8...

Notice from spectre at time = 268.888 ns during transient analysis `trans-000_trans', during task `MDLControl'.
    Found trapezoidal ringing on node I19.NM1:int_d.

......9......8.....

Notice from spectre at time = 284.444 ns during transient analysis `trans-000_trans', during task `MDLControl'.
    Found trapezoidal ringing on node I19.NM1:int_d.

......9......8......

Notice from spectre at time = 300 ns during transient analysis `trans-000_trans', during task `MDLControl'.
    Found trapezoidal ringing on node I19.NM1:int_d.

......9......8......7......6...

Notice from spectre at time = 466.035 ns during transient analysis `trans-000_trans', during task `MDLControl'.
    Found trapezoidal ringing on node V0:p.
        Further occurrences of this notice will be suppressed.

......9......8......7......6......5......4......3......2......1......0
Number of accepted tran steps =             325

Notice from spectre during transient analysis `trans-000_trans', during task `MDLControl'.
    Trapezoidal ringing is detected during tran analysis.
        Please use method=trap for better results and performance.


Maximum value achieved for any signal of each quantity: 
V: V(I19.PM15:int_d) = 383.8 mV
I: I(V0:p) = 44.29 uA
If your circuit contains signals of the same quantity that are vastly different in size (such as high voltage circuitry combined with low voltage control circuitry), you should consider specifying global option `bin_relref=yes'.

~~~~~~~~~~~~~~~~~~~~~~~~~~~~~~~~~
Post-Transient Simulation Summary
~~~~~~~~~~~~~~~~~~~~~~~~~~~~~~~~~
   -   To further speed up simulation, consider
          add ++aps on command line
~~~~~~~~~~~~~~~~~~~~~~~~~~~~~~~~~


During simulation, the CPU load for active processors is :
         0 (20.9 %)      1 (70.5 %)      2 (1.7 %)       3 (1.8 %)
        Total: 95.0%
Initial condition solution time: CPU = 4 ms, elapsed = 3.65305 ms.
Intrinsic tran analysis time:    CPU = 145.979 ms, elapsed = 199.364 ms.
Total time required for tran analysis `trans-000_trans': CPU = 152.977 ms, elapsed = 205.572 ms.
Time accumulated: CPU = 6.44502 s, elapsed = 7.11092 s.
Peak resident memory used = 227 Mbytes.


Notice from spectre during task `MDLControl'.
    7 notices suppressed.
Warning from spectre.
    WARNING (SPECTRE-17101): The value 'psf' specified for the 'checklimitdest' option will no longer be supported in future releases. Use 'spectre -h' to see other recommended values for the 'checklimitdest' option.
    WARNING (SPECTRE-17101): The value 'psf' specified for the 'checklimitdest' option will no longer be supported in future releases. Use 'spectre -h' to see other recommended values for the 'checklimitdest' option.
    WARNING (SPECTRE-17101): The value 'psf' specified for the 'checklimitdest' option will no longer be supported in future releases. Use 'spectre -h' to see other recommended values for the 'checklimitdest' option.
    WARNING (SPECTRE-17101): The value 'psf' specified for the 'checklimitdest' option will no longer be supported in future releases. Use 'spectre -h' to see other recommended values for the 'checklimitdest' option.


**********************************************************
Transient Analysis `trans-000_trans': time = (0 s -> 1 us)
**********************************************************

Notice from spectre during IC analysis, during transient analysis `trans-000_trans', during task `MDLControl'.
    GminDC = 1 pS is large enough to noticeably affect the DC solution.
        dV(I19.PM16:int_s) = 7.53889 uV
        Use the `gmin_check' option to eliminate or expand this report.

DC simulation time: CPU = 3 ms, elapsed = 3.01886 ms.

Opening the PSFXL file ./input.raw/trans-000_trans.tran.tran ...
Important parameter values:
    start = 0 s
    outputstart = 0 s
    stop = 1 us
    step = 1 ns
    maxstep = 20 ns
    ic = all
    useprevic = no
    skipdc = no
    reltol = 1e-03
    abstol(V) = 1 uV
    abstol(I) = 1 pA
    temp = 27 C
    tnom = 27 C
    tempeffects = all
    errpreset = moderate
    method = traponly
    lteratio = 3.5
    relref = sigglobal
    cmin = 0 F
    gmin = 1 pS


Output and IC/nodeset summary:
                 save   1       (current)
                 save   17      (voltage)

......9......8......7......6......5......4......3......2......1......

Notice from spectre at time = 1 us during transient analysis `trans-000_trans', during task `MDLControl'.
    Found trapezoidal ringing on node V0:p.

......9......8......7......6......5......4......3......2......1......0
Number of accepted tran steps =             332

Notice from spectre during transient analysis `trans-000_trans', during task `MDLControl'.
    Trapezoidal ringing is detected during tran analysis.
        Please use method=trap for better results and performance.


Maximum value achieved for any signal of each quantity: 
V: V(I19.PM15:int_d) = 376.3 mV
I: I(V0:p) = 5.843 uA
If your circuit contains signals of the same quantity that are vastly different in size (such as high voltage circuitry combined with low voltage control circuitry), you should consider specifying global option `bin_relref=yes'.

~~~~~~~~~~~~~~~~~~~~~~~~~~~~~~~~~
Post-Transient Simulation Summary
~~~~~~~~~~~~~~~~~~~~~~~~~~~~~~~~~
   -   To further speed up simulation, consider
          add ++aps on command line
~~~~~~~~~~~~~~~~~~~~~~~~~~~~~~~~~


During simulation, the CPU load for active processors is :
         0 (23.7 %)      1 (67.5 %)      2 (1.9 %)       3 (1.8 %)
        Total: 94.9%
Initial condition solution time: CPU = 3 ms, elapsed = 3.05486 ms.
Intrinsic tran analysis time:    CPU = 146.977 ms, elapsed = 201.37 ms.
Total time required for tran analysis `trans-000_trans': CPU = 152.976 ms, elapsed = 207.032 ms.
Time accumulated: CPU = 6.71398 s, elapsed = 7.439 s.
Peak resident memory used = 227 Mbytes.


Warning from spectre.
    WARNING (SPECTRE-17101): The value 'psf' specified for the 'checklimitdest' option will no longer be supported in future releases. Use 'spectre -h' to see other recommended values for the 'checklimitdest' option.
    WARNING (SPECTRE-17101): The value 'psf' specified for the 'checklimitdest' option will no longer be supported in future releases. Use 'spectre -h' to see other recommended values for the 'checklimitdest' option.
    WARNING (SPECTRE-17101): The value 'psf' specified for the 'checklimitdest' option will no longer be supported in future releases. Use 'spectre -h' to see other recommended values for the 'checklimitdest' option.
    WARNING (SPECTRE-17101): The value 'psf' specified for the 'checklimitdest' option will no longer be supported in future releases. Use 'spectre -h' to see other recommended values for the 'checklimitdest' option.


**********************************************************
Transient Analysis `trans-000_trans': time = (0 s -> 1 us)
**********************************************************
DC simulation time: CPU = 1 ms, elapsed = 2.69318 ms.

Opening the PSFXL file ./input.raw/trans-000_trans.tran.tran ...
Important parameter values:
    start = 0 s
    outputstart = 0 s
    stop = 1 us
    step = 1 ns
    maxstep = 20 ns
    ic = all
    useprevic = no
    skipdc = no
    reltol = 1e-03
    abstol(V) = 1 uV
    abstol(I) = 1 pA
    temp = 27 C
    tnom = 27 C
    tempeffects = all
    errpreset = moderate
    method = traponly
    lteratio = 3.5
    relref = sigglobal
    cmin = 0 F
    gmin = 1 pS


Output and IC/nodeset summary:
                 save   1       (current)
                 save   17      (voltage)

......9......8......7......6......5......4

Notice from spectre at time = 608.432 ns during transient analysis `trans-000_trans', during task `MDLControl'.
    Found trapezoidal ringing on node I19.NM6:int_g.

......9......8......7......6......5......4......3......2......1......0
Number of accepted tran steps =             356

Notice from spectre during transient analysis `trans-000_trans', during task `MDLControl'.
    Trapezoidal ringing is detected during tran analysis.
        Please use method=trap for better results and performance.


Maximum value achieved for any signal of each quantity: 
V: V(I19.PM16:int_d) = 385.8 mV
I: I(V0:p) = 13.78 uA
If your circuit contains signals of the same quantity that are vastly different in size (such as high voltage circuitry combined with low voltage control circuitry), you should consider specifying global option `bin_relref=yes'.

~~~~~~~~~~~~~~~~~~~~~~~~~~~~~~~~~
Post-Transient Simulation Summary
~~~~~~~~~~~~~~~~~~~~~~~~~~~~~~~~~
   -   To further speed up simulation, consider
          add ++aps on command line
~~~~~~~~~~~~~~~~~~~~~~~~~~~~~~~~~


During simulation, the CPU load for active processors is :
         0 (26.5 %)      1 (64.9 %)      2 (2.2 %)       3 (1.7 %)
        Total: 95.2%
Initial condition solution time: CPU = 1 ms, elapsed = 2.73609 ms.
Intrinsic tran analysis time:    CPU = 156.976 ms, elapsed = 203.001 ms.
Total time required for tran analysis `trans-000_trans': CPU = 161.975 ms, elapsed = 208.333 ms.
Time accumulated: CPU = 6.99294 s, elapsed = 7.76633 s.
Peak resident memory used = 227 Mbytes.


Warning from spectre.
    WARNING (SPECTRE-17101): The value 'psf' specified for the 'checklimitdest' option will no longer be supported in future releases. Use 'spectre -h' to see other recommended values for the 'checklimitdest' option.


**********************************************************
Transient Analysis `trans-000_trans': time = (0 s -> 1 us)
**********************************************************
DC simulation time: CPU = 3 ms, elapsed = 2.69294 ms.

Opening the PSFXL file ./input.raw/trans-000_trans.tran.tran ...
Important parameter values:
    start = 0 s
    outputstart = 0 s
    stop = 1 us
    step = 1 ns
    maxstep = 20 ns
    ic = all
    useprevic = no
    skipdc = no
    reltol = 1e-03
    abstol(V) = 1 uV
    abstol(I) = 1 pA
    temp = 27 C
    tnom = 27 C
    tempeffects = all
    errpreset = moderate
    method = traponly
    lteratio = 3.5
    relref = sigglobal
    cmin = 0 F
    gmin = 1 pS


Output and IC/nodeset summary:
                 save   1       (current)
                 save   17      (voltage)

......9......8......7......6......5......4

Notice from spectre at time = 608.431 ns during transient analysis `trans-000_trans', during task `MDLControl'.
    Found trapezoidal ringing on node I19.NM6:int_g.

......9......8......7......6......5......4......3......2......1......0
Number of accepted tran steps =             356

Notice from spectre during transient analysis `trans-000_trans', during task `MDLControl'.
    Trapezoidal ringing is detected during tran analysis.
        Please use method=trap for better results and performance.


Maximum value achieved for any signal of each quantity: 
V: V(I19.PM16:int_d) = 385.8 mV
I: I(V0:p) = 13.78 uA
If your circuit contains signals of the same quantity that are vastly different in size (such as high voltage circuitry combined with low voltage control circuitry), you should consider specifying global option `bin_relref=yes'.

~~~~~~~~~~~~~~~~~~~~~~~~~~~~~~~~~
Post-Transient Simulation Summary
~~~~~~~~~~~~~~~~~~~~~~~~~~~~~~~~~
   -   To further speed up simulation, consider
          add ++aps on command line
~~~~~~~~~~~~~~~~~~~~~~~~~~~~~~~~~


During simulation, the CPU load for active processors is :
         0 (27.9 %)      1 (62.9 %)      2 (2.3 %)       3 (2.1 %)
        Total: 95.2%
Initial condition solution time: CPU = 3 ms, elapsed = 2.73681 ms.
Intrinsic tran analysis time:    CPU = 155.976 ms, elapsed = 198.913 ms.
Total time required for tran analysis `trans-000_trans': CPU = 160.976 ms, elapsed = 204.214 ms.
Time accumulated: CPU = 7.18991 s, elapsed = 8.00669 s.
Peak resident memory used = 227 Mbytes.


Warning from spectre.
    WARNING (SPECTRE-17101): The value 'psf' specified for the 'checklimitdest' option will no longer be supported in future releases. Use 'spectre -h' to see other recommended values for the 'checklimitdest' option.
    WARNING (SPECTRE-17101): The value 'psf' specified for the 'checklimitdest' option will no longer be supported in future releases. Use 'spectre -h' to see other recommended values for the 'checklimitdest' option.


**********************************************************
Transient Analysis `trans-000_trans': time = (0 s -> 1 us)
**********************************************************
DC simulation time: CPU = 3 ms, elapsed = 2.78091 ms.

Opening the PSFXL file ./input.raw/trans-000_trans.tran.tran ...
Important parameter values:
    start = 0 s
    outputstart = 0 s
    stop = 1 us
    step = 1 ns
    maxstep = 20 ns
    ic = all
    useprevic = no
    skipdc = no
    reltol = 1e-03
    abstol(V) = 1 uV
    abstol(I) = 1 pA
    temp = 27 C
    tnom = 27 C
    tempeffects = all
    errpreset = moderate
    method = traponly
    lteratio = 3.5
    relref = sigglobal
    cmin = 0 F
    gmin = 1 pS


Output and IC/nodeset summary:
                 save   1       (current)
                 save   17      (voltage)

......9......8......7......6......5......4

Notice from spectre at time = 608.432 ns during transient analysis `trans-000_trans', during task `MDLControl'.
    Found trapezoidal ringing on node I19.NM6:int_g.

......9......8......7......6......5......4......3......2......1......0
Number of accepted tran steps =             356

Notice from spectre during transient analysis `trans-000_trans', during task `MDLControl'.
    Trapezoidal ringing is detected during tran analysis.
        Please use method=trap for better results and performance.


Maximum value achieved for any signal of each quantity: 
V: V(I19.PM16:int_d) = 385.8 mV
I: I(V0:p) = 13.78 uA
If your circuit contains signals of the same quantity that are vastly different in size (such as high voltage circuitry combined with low voltage control circuitry), you should consider specifying global option `bin_relref=yes'.

~~~~~~~~~~~~~~~~~~~~~~~~~~~~~~~~~
Post-Transient Simulation Summary
~~~~~~~~~~~~~~~~~~~~~~~~~~~~~~~~~
   -   To further speed up simulation, consider
          add ++aps on command line
~~~~~~~~~~~~~~~~~~~~~~~~~~~~~~~~~


During simulation, the CPU load for active processors is :
         0 (29.8 %)      1 (61.1 %)      2 (2.3 %)       3 (2.1 %)
        Total: 95.3%
Initial condition solution time: CPU = 3 ms, elapsed = 2.83098 ms.
Intrinsic tran analysis time:    CPU = 161.975 ms, elapsed = 199.931 ms.
Total time required for tran analysis `trans-000_trans': CPU = 166.975 ms, elapsed = 205.954 ms.
Time accumulated: CPU = 7.41487 s, elapsed = 8.27233 s.
Peak resident memory used = 227 Mbytes.


Warning from spectre.
    WARNING (SPECTRE-17101): The value 'psf' specified for the 'checklimitdest' option will no longer be supported in future releases. Use 'spectre -h' to see other recommended values for the 'checklimitdest' option.
    WARNING (SPECTRE-17101): The value 'psf' specified for the 'checklimitdest' option will no longer be supported in future releases. Use 'spectre -h' to see other recommended values for the 'checklimitdest' option.


**********************************************************
Transient Analysis `trans-000_trans': time = (0 s -> 1 us)
**********************************************************
DC simulation time: CPU = 1.999 ms, elapsed = 2.65217 ms.

Opening the PSFXL file ./input.raw/trans-000_trans.tran.tran ...
Important parameter values:
    start = 0 s
    outputstart = 0 s
    stop = 1 us
    step = 1 ns
    maxstep = 20 ns
    ic = all
    useprevic = no
    skipdc = no
    reltol = 1e-03
    abstol(V) = 1 uV
    abstol(I) = 1 pA
    temp = 27 C
    tnom = 27 C
    tempeffects = all
    errpreset = moderate
    method = traponly
    lteratio = 3.5
    relref = sigglobal
    cmin = 0 F
    gmin = 1 pS


Output and IC/nodeset summary:
                 save   1       (current)
                 save   17      (voltage)

......9......8......7......6......5......4

Notice from spectre at time = 608.431 ns during transient analysis `trans-000_trans', during task `MDLControl'.
    Found trapezoidal ringing on node I19.NM6:int_g.

......9......8......7......6......5......4......3......2......1......0
Number of accepted tran steps =             356

Notice from spectre during transient analysis `trans-000_trans', during task `MDLControl'.
    Trapezoidal ringing is detected during tran analysis.
        Please use method=trap for better results and performance.


Maximum value achieved for any signal of each quantity: 
V: V(I19.PM16:int_d) = 385.8 mV
I: I(V0:p) = 13.78 uA
If your circuit contains signals of the same quantity that are vastly different in size (such as high voltage circuitry combined with low voltage control circuitry), you should consider specifying global option `bin_relref=yes'.

~~~~~~~~~~~~~~~~~~~~~~~~~~~~~~~~~
Post-Transient Simulation Summary
~~~~~~~~~~~~~~~~~~~~~~~~~~~~~~~~~
   -   To further speed up simulation, consider
          add ++aps on command line
~~~~~~~~~~~~~~~~~~~~~~~~~~~~~~~~~


During simulation, the CPU load for active processors is :
         0 (31.7 %)      1 (59.4 %)      2 (2.4 %)       3 (2.0 %)
        Total: 95.5%
Initial condition solution time: CPU = 1.999 ms, elapsed = 2.69413 ms.
Intrinsic tran analysis time:    CPU = 156.976 ms, elapsed = 187.45 ms.
Total time required for tran analysis `trans-000_trans': CPU = 161.975 ms, elapsed = 192.713 ms.
Time accumulated: CPU = 7.63684 s, elapsed = 8.52549 s.
Peak resident memory used = 227 Mbytes.


Warning from spectre.
    WARNING (SPECTRE-17101): The value 'psf' specified for the 'checklimitdest' option will no longer be supported in future releases. Use 'spectre -h' to see other recommended values for the 'checklimitdest' option.
    WARNING (SPECTRE-17101): The value 'psf' specified for the 'checklimitdest' option will no longer be supported in future releases. Use 'spectre -h' to see other recommended values for the 'checklimitdest' option.


**********************************************************
Transient Analysis `trans-000_trans': time = (0 s -> 1 us)
**********************************************************
DC simulation time: CPU = 2.999 ms, elapsed = 2.65694 ms.

Opening the PSFXL file ./input.raw/trans-000_trans.tran.tran ...
Important parameter values:
    start = 0 s
    outputstart = 0 s
    stop = 1 us
    step = 1 ns
    maxstep = 20 ns
    ic = all
    useprevic = no
    skipdc = no
    reltol = 1e-03
    abstol(V) = 1 uV
    abstol(I) = 1 pA
    temp = 27 C
    tnom = 27 C
    tempeffects = all
    errpreset = moderate
    method = traponly
    lteratio = 3.5
    relref = sigglobal
    cmin = 0 F
    gmin = 1 pS


Output and IC/nodeset summary:
                 save   1       (current)
                 save   17      (voltage)

......9......8......7......6......5......4

Notice from spectre at time = 608.438 ns during transient analysis `trans-000_trans', during task `MDLControl'.
    Found trapezoidal ringing on node I19.NM6:int_g.

......9......8......7......6......5......4......3......2......1......0
Number of accepted tran steps =             356

Notice from spectre during transient analysis `trans-000_trans', during task `MDLControl'.
    Trapezoidal ringing is detected during tran analysis.
        Please use method=trap for better results and performance.


Maximum value achieved for any signal of each quantity: 
V: V(I19.PM16:int_d) = 385.8 mV
I: I(V0:p) = 13.78 uA
If your circuit contains signals of the same quantity that are vastly different in size (such as high voltage circuitry combined with low voltage control circuitry), you should consider specifying global option `bin_relref=yes'.

~~~~~~~~~~~~~~~~~~~~~~~~~~~~~~~~~
Post-Transient Simulation Summary
~~~~~~~~~~~~~~~~~~~~~~~~~~~~~~~~~
   -   To further speed up simulation, consider
          add ++aps on command line
~~~~~~~~~~~~~~~~~~~~~~~~~~~~~~~~~


During simulation, the CPU load for active processors is :
         0 (33.3 %)      1 (57.7 %)      2 (2.4 %)       3 (2.0 %)
        Total: 95.4%
Initial condition solution time: CPU = 2.999 ms, elapsed = 2.6989 ms.
Intrinsic tran analysis time:    CPU = 151.978 ms, elapsed = 189.209 ms.
Total time required for tran analysis `trans-000_trans': CPU = 157.976 ms, elapsed = 194.458 ms.
Time accumulated: CPU = 7.85281 s, elapsed = 8.77998 s.
Peak resident memory used = 227 Mbytes.


Warning from spectre.
    WARNING (SPECTRE-17101): The value 'psf' specified for the 'checklimitdest' option will no longer be supported in future releases. Use 'spectre -h' to see other recommended values for the 'checklimitdest' option.
    WARNING (SPECTRE-17101): The value 'psf' specified for the 'checklimitdest' option will no longer be supported in future releases. Use 'spectre -h' to see other recommended values for the 'checklimitdest' option.
    WARNING (SPECTRE-17101): The value 'psf' specified for the 'checklimitdest' option will no longer be supported in future releases. Use 'spectre -h' to see other recommended values for the 'checklimitdest' option.
    WARNING (SPECTRE-17101): The value 'psf' specified for the 'checklimitdest' option will no longer be supported in future releases. Use 'spectre -h' to see other recommended values for the 'checklimitdest' option.


**********************************************************
Transient Analysis `trans-000_trans': time = (0 s -> 1 us)
**********************************************************

Notice from spectre during IC analysis, during transient analysis `trans-000_trans', during task `MDLControl'.
    GminDC = 1 pS is large enough to noticeably affect the DC solution.
        dV(I19.PM12:int_d) = 66.1498 uV
        Use the `gmin_check' option to eliminate or expand this report.

DC simulation time: CPU = 5 ms, elapsed = 5.05185 ms.

Opening the PSFXL file ./input.raw/trans-000_trans.tran.tran ...
Important parameter values:
    start = 0 s
    outputstart = 0 s
    stop = 1 us
    step = 1 ns
    maxstep = 20 ns
    ic = all
    useprevic = no
    skipdc = no
    reltol = 1e-03
    abstol(V) = 1 uV
    abstol(I) = 1 pA
    temp = 27 C
    tnom = 27 C
    tempeffects = all
    errpreset = moderate
    method = traponly
    lteratio = 3.5
    relref = sigglobal
    cmin = 0 F
    gmin = 1 pS


Output and IC/nodeset summary:
                 save   1       (current)
                 save   17      (voltage)

......9......8......7......6......5......4......3......2......1.

Notice from spectre at time = 939.847 ns during transient analysis `trans-000_trans', during task `MDLControl'.
    Found trapezoidal ringing on node V0:p.

......9......8......7......6......5......4......3......2......1...

Notice from spectre at time = 959.847 ns during transient analysis `trans-000_trans', during task `MDLControl'.
    Found trapezoidal ringing on node V0:p.

......9......8......7......6......5......4......3......2......1....

Notice from spectre at time = 979.847 ns during transient analysis `trans-000_trans', during task `MDLControl'.
    Found trapezoidal ringing on node V0:p.

......9......8......7......6......5......4......3......2......1......

Notice from spectre at time = 989.923 ns during transient analysis `trans-000_trans', during task `MDLControl'.
    Found trapezoidal ringing on node V0:p.
Notice from spectre at time = 1 us during transient analysis `trans-000_trans', during task `MDLControl'.
    Found trapezoidal ringing on node V0:p.
        Further occurrences of this notice will be suppressed.

......9......8......7......6......5......4......3......2......1......0
Number of accepted tran steps =             323

Notice from spectre during transient analysis `trans-000_trans', during task `MDLControl'.
    Trapezoidal ringing is detected during tran analysis.
        Please use method=trap for better results and performance.


Maximum value achieved for any signal of each quantity: 
V: V(I19.PM15:int_d) = 379.9 mV
I: I(V0:p) = 6.682 uA
If your circuit contains signals of the same quantity that are vastly different in size (such as high voltage circuitry combined with low voltage control circuitry), you should consider specifying global option `bin_relref=yes'.

~~~~~~~~~~~~~~~~~~~~~~~~~~~~~~~~~
Post-Transient Simulation Summary
~~~~~~~~~~~~~~~~~~~~~~~~~~~~~~~~~
   -   To further speed up simulation, consider
          add ++aps on command line
~~~~~~~~~~~~~~~~~~~~~~~~~~~~~~~~~


During simulation, the CPU load for active processors is :
         0 (34.6 %)      1 (56.0 %)      2 (2.3 %)       3 (2.6 %)
        Total: 95.5%
Initial condition solution time: CPU = 5 ms, elapsed = 5.09119 ms.
Intrinsic tran analysis time:    CPU = 143.978 ms, elapsed = 177.492 ms.
Total time required for tran analysis `trans-000_trans': CPU = 150.977 ms, elapsed = 185.247 ms.
Time accumulated: CPU = 8.12476 s, elapsed = 9.08872 s.
Peak resident memory used = 227 Mbytes.


Warning from spectre.
    WARNING (SPECTRE-17101): The value 'psf' specified for the 'checklimitdest' option will no longer be supported in future releases. Use 'spectre -h' to see other recommended values for the 'checklimitdest' option.
    WARNING (SPECTRE-17101): The value 'psf' specified for the 'checklimitdest' option will no longer be supported in future releases. Use 'spectre -h' to see other recommended values for the 'checklimitdest' option.
    WARNING (SPECTRE-17101): The value 'psf' specified for the 'checklimitdest' option will no longer be supported in future releases. Use 'spectre -h' to see other recommended values for the 'checklimitdest' option.
    WARNING (SPECTRE-17101): The value 'psf' specified for the 'checklimitdest' option will no longer be supported in future releases. Use 'spectre -h' to see other recommended values for the 'checklimitdest' option.


**********************************************************
Transient Analysis `trans-000_trans': time = (0 s -> 1 us)
**********************************************************
DC simulation time: CPU = 3.999 ms, elapsed = 3.80993 ms.

Opening the PSFXL file ./input.raw/trans-000_trans.tran.tran ...
Important parameter values:
    start = 0 s
    outputstart = 0 s
    stop = 1 us
    step = 1 ns
    maxstep = 20 ns
    ic = all
    useprevic = no
    skipdc = no
    reltol = 1e-03
    abstol(V) = 1 uV
    abstol(I) = 1 pA
    temp = 27 C
    tnom = 27 C
    tempeffects = all
    errpreset = moderate
    method = traponly
    lteratio = 3.5
    relref = sigglobal
    cmin = 0 F
    gmin = 1 pS


Output and IC/nodeset summary:
                 save   1       (current)
                 save   17      (voltage)

......9......8......7......6......5......4......3......2......1......0
Number of accepted tran steps =             335

Maximum value achieved for any signal of each quantity: 
V: V(I19.PM15:int_d) = 377.7 mV
I: I(V0:p) = 11.14 uA
If your circuit contains signals of the same quantity that are vastly different in size (such as high voltage circuitry combined with low voltage control circuitry), you should consider specifying global option `bin_relref=yes'.

~~~~~~~~~~~~~~~~~~~~~~~~~~~~~~~~~
Post-Transient Simulation Summary
~~~~~~~~~~~~~~~~~~~~~~~~~~~~~~~~~
   -   To further speed up simulation, consider
          add ++aps on command line
~~~~~~~~~~~~~~~~~~~~~~~~~~~~~~~~~


During simulation, the CPU load for active processors is :
         0 (36.5 %)      1 (54.2 %)      2 (2.7 %)       3 (2.5 %)
        Total: 95.9%
Initial condition solution time: CPU = 3.999 ms, elapsed = 3.85809 ms.
Intrinsic tran analysis time:    CPU = 145.977 ms, elapsed = 184.487 ms.
Total time required for tran analysis `trans-000_trans': CPU = 152.976 ms, elapsed = 191.477 ms.
Time accumulated: CPU = 8.39172 s, elapsed = 9.39921 s.
Peak resident memory used = 227 Mbytes.


Warning from spectre.
    WARNING (SPECTRE-17101): The value 'psf' specified for the 'checklimitdest' option will no longer be supported in future releases. Use 'spectre -h' to see other recommended values for the 'checklimitdest' option.
    WARNING (SPECTRE-17101): The value 'psf' specified for the 'checklimitdest' option will no longer be supported in future releases. Use 'spectre -h' to see other recommended values for the 'checklimitdest' option.
    WARNING (SPECTRE-17101): The value 'psf' specified for the 'checklimitdest' option will no longer be supported in future releases. Use 'spectre -h' to see other recommended values for the 'checklimitdest' option.
    WARNING (SPECTRE-17101): The value 'psf' specified for the 'checklimitdest' option will no longer be supported in future releases. Use 'spectre -h' to see other recommended values for the 'checklimitdest' option.


**********************************************************
Transient Analysis `trans-000_trans': time = (0 s -> 1 us)
**********************************************************
DC simulation time: CPU = 2.999 ms, elapsed = 2.59709 ms.

Opening the PSFXL file ./input.raw/trans-000_trans.tran.tran ...
Important parameter values:
    start = 0 s
    outputstart = 0 s
    stop = 1 us
    step = 1 ns
    maxstep = 20 ns
    ic = all
    useprevic = no
    skipdc = no
    reltol = 1e-03
    abstol(V) = 1 uV
    abstol(I) = 1 pA
    temp = 27 C
    tnom = 27 C
    tempeffects = all
    errpreset = moderate
    method = traponly
    lteratio = 3.5
    relref = sigglobal
    cmin = 0 F
    gmin = 1 pS


Output and IC/nodeset summary:
                 save   1       (current)
                 save   17      (voltage)

......9......8......7......6......5......4......3......2......1......0
Number of accepted tran steps =             356

Maximum value achieved for any signal of each quantity: 
V: V(I19.PM16:int_d) = 384.7 mV
I: I(V0:p) = 13.4 uA
If your circuit contains signals of the same quantity that are vastly different in size (such as high voltage circuitry combined with low voltage control circuitry), you should consider specifying global option `bin_relref=yes'.

~~~~~~~~~~~~~~~~~~~~~~~~~~~~~~~~~
Post-Transient Simulation Summary
~~~~~~~~~~~~~~~~~~~~~~~~~~~~~~~~~
   -   To further speed up simulation, consider
          add ++aps on command line
~~~~~~~~~~~~~~~~~~~~~~~~~~~~~~~~~


During simulation, the CPU load for active processors is :
         0 (38.2 %)      1 (52.6 %)      2 (2.8 %)       3 (2.4 %)
        Total: 96.1%
Initial condition solution time: CPU = 2.999 ms, elapsed = 2.64502 ms.
Intrinsic tran analysis time:    CPU = 153.977 ms, elapsed = 186.939 ms.
Total time required for tran analysis `trans-000_trans': CPU = 159.976 ms, elapsed = 192.631 ms.
Time accumulated: CPU = 8.66668 s, elapsed = 9.70796 s.
Peak resident memory used = 227 Mbytes.


Warning from spectre.
    WARNING (SPECTRE-17101): The value 'psf' specified for the 'checklimitdest' option will no longer be supported in future releases. Use 'spectre -h' to see other recommended values for the 'checklimitdest' option.


**********************************************************
Transient Analysis `trans-000_trans': time = (0 s -> 1 us)
**********************************************************
DC simulation time: CPU = 2.999 ms, elapsed = 2.58112 ms.

Opening the PSFXL file ./input.raw/trans-000_trans.tran.tran ...
Important parameter values:
    start = 0 s
    outputstart = 0 s
    stop = 1 us
    step = 1 ns
    maxstep = 20 ns
    ic = all
    useprevic = no
    skipdc = no
    reltol = 1e-03
    abstol(V) = 1 uV
    abstol(I) = 1 pA
    temp = 27 C
    tnom = 27 C
    tempeffects = all
    errpreset = moderate
    method = traponly
    lteratio = 3.5
    relref = sigglobal
    cmin = 0 F
    gmin = 1 pS


Output and IC/nodeset summary:
                 save   1       (current)
                 save   17      (voltage)

......9......8......7......6......5......4......3......2......1......0
Number of accepted tran steps =             356

Maximum value achieved for any signal of each quantity: 
V: V(I19.PM16:int_d) = 384.7 mV
I: I(V0:p) = 13.4 uA
If your circuit contains signals of the same quantity that are vastly different in size (such as high voltage circuitry combined with low voltage control circuitry), you should consider specifying global option `bin_relref=yes'.

~~~~~~~~~~~~~~~~~~~~~~~~~~~~~~~~~
Post-Transient Simulation Summary
~~~~~~~~~~~~~~~~~~~~~~~~~~~~~~~~~
   -   To further speed up simulation, consider
          add ++aps on command line
~~~~~~~~~~~~~~~~~~~~~~~~~~~~~~~~~


During simulation, the CPU load for active processors is :
         0 (39.4 %)      1 (51.5 %)      2 (2.7 %)       3 (2.3 %)
        Total: 95.9%
Initial condition solution time: CPU = 2.999 ms, elapsed = 2.62308 ms.
Intrinsic tran analysis time:    CPU = 155.977 ms, elapsed = 190.716 ms.
Total time required for tran analysis `trans-000_trans': CPU = 160.976 ms, elapsed = 195.899 ms.
Time accumulated: CPU = 8.85765 s, elapsed = 9.93534 s.
Peak resident memory used = 227 Mbytes.


Warning from spectre.
    WARNING (SPECTRE-17101): The value 'psf' specified for the 'checklimitdest' option will no longer be supported in future releases. Use 'spectre -h' to see other recommended values for the 'checklimitdest' option.
    WARNING (SPECTRE-17101): The value 'psf' specified for the 'checklimitdest' option will no longer be supported in future releases. Use 'spectre -h' to see other recommended values for the 'checklimitdest' option.


**********************************************************
Transient Analysis `trans-000_trans': time = (0 s -> 1 us)
**********************************************************
DC simulation time: CPU = 3 ms, elapsed = 2.56109 ms.

Opening the PSFXL file ./input.raw/trans-000_trans.tran.tran ...
Important parameter values:
    start = 0 s
    outputstart = 0 s
    stop = 1 us
    step = 1 ns
    maxstep = 20 ns
    ic = all
    useprevic = no
    skipdc = no
    reltol = 1e-03
    abstol(V) = 1 uV
    abstol(I) = 1 pA
    temp = 27 C
    tnom = 27 C
    tempeffects = all
    errpreset = moderate
    method = traponly
    lteratio = 3.5
    relref = sigglobal
    cmin = 0 F
    gmin = 1 pS


Output and IC/nodeset summary:
                 save   1       (current)
                 save   17      (voltage)

......9......8......7......6......5......4......3......2......1......0
Number of accepted tran steps =             356

Maximum value achieved for any signal of each quantity: 
V: V(I19.PM16:int_d) = 384.7 mV
I: I(V0:p) = 13.4 uA
If your circuit contains signals of the same quantity that are vastly different in size (such as high voltage circuitry combined with low voltage control circuitry), you should consider specifying global option `bin_relref=yes'.

~~~~~~~~~~~~~~~~~~~~~~~~~~~~~~~~~
Post-Transient Simulation Summary
~~~~~~~~~~~~~~~~~~~~~~~~~~~~~~~~~
   -   To further speed up simulation, consider
          add ++aps on command line
~~~~~~~~~~~~~~~~~~~~~~~~~~~~~~~~~


During simulation, the CPU load for active processors is :
         0 (40.5 %)      1 (50.3 %)      2 (2.8 %)       3 (2.5 %)
        Total: 96.1%
Initial condition solution time: CPU = 3 ms, elapsed = 2.60401 ms.
Intrinsic tran analysis time:    CPU = 156.976 ms, elapsed = 190.583 ms.
Total time required for tran analysis `trans-000_trans': CPU = 161.976 ms, elapsed = 195.727 ms.
Time accumulated: CPU = 9.08162 s, elapsed = 10.1946 s.
Peak resident memory used = 227 Mbytes.


Warning from spectre.
    WARNING (SPECTRE-17101): The value 'psf' specified for the 'checklimitdest' option will no longer be supported in future releases. Use 'spectre -h' to see other recommended values for the 'checklimitdest' option.
    WARNING (SPECTRE-17101): The value 'psf' specified for the 'checklimitdest' option will no longer be supported in future releases. Use 'spectre -h' to see other recommended values for the 'checklimitdest' option.


**********************************************************
Transient Analysis `trans-000_trans': time = (0 s -> 1 us)
**********************************************************
DC simulation time: CPU = 2.999 ms, elapsed = 2.81286 ms.

Opening the PSFXL file ./input.raw/trans-000_trans.tran.tran ...
Important parameter values:
    start = 0 s
    outputstart = 0 s
    stop = 1 us
    step = 1 ns
    maxstep = 20 ns
    ic = all
    useprevic = no
    skipdc = no
    reltol = 1e-03
    abstol(V) = 1 uV
    abstol(I) = 1 pA
    temp = 27 C
    tnom = 27 C
    tempeffects = all
    errpreset = moderate
    method = traponly
    lteratio = 3.5
    relref = sigglobal
    cmin = 0 F
    gmin = 1 pS


Output and IC/nodeset summary:
                 save   1       (current)
                 save   17      (voltage)

......9......8......7......6......5......4......3......2......1......0
Number of accepted tran steps =             356

Maximum value achieved for any signal of each quantity: 
V: V(I19.PM16:int_d) = 384.7 mV
I: I(V0:p) = 13.4 uA
If your circuit contains signals of the same quantity that are vastly different in size (such as high voltage circuitry combined with low voltage control circuitry), you should consider specifying global option `bin_relref=yes'.

~~~~~~~~~~~~~~~~~~~~~~~~~~~~~~~~~
Post-Transient Simulation Summary
~~~~~~~~~~~~~~~~~~~~~~~~~~~~~~~~~
   -   To further speed up simulation, consider
          add ++aps on command line
~~~~~~~~~~~~~~~~~~~~~~~~~~~~~~~~~


During simulation, the CPU load for active processors is :
         0 (41.7 %)      1 (49.1 %)      2 (2.9 %)       3 (2.4 %)
        Total: 96.1%
Initial condition solution time: CPU = 2.999 ms, elapsed = 2.88916 ms.
Intrinsic tran analysis time:    CPU = 157.976 ms, elapsed = 203.949 ms.
Total time required for tran analysis `trans-000_trans': CPU = 163.975 ms, elapsed = 209.845 ms.
Time accumulated: CPU = 9.30358 s, elapsed = 10.4635 s.
Peak resident memory used = 227 Mbytes.


Warning from spectre.
    WARNING (SPECTRE-17101): The value 'psf' specified for the 'checklimitdest' option will no longer be supported in future releases. Use 'spectre -h' to see other recommended values for the 'checklimitdest' option.
    WARNING (SPECTRE-17101): The value 'psf' specified for the 'checklimitdest' option will no longer be supported in future releases. Use 'spectre -h' to see other recommended values for the 'checklimitdest' option.


**********************************************************
Transient Analysis `trans-000_trans': time = (0 s -> 1 us)
**********************************************************
DC simulation time: CPU = 1.999 ms, elapsed = 2.52199 ms.

Opening the PSFXL file ./input.raw/trans-000_trans.tran.tran ...
Important parameter values:
    start = 0 s
    outputstart = 0 s
    stop = 1 us
    step = 1 ns
    maxstep = 20 ns
    ic = all
    useprevic = no
    skipdc = no
    reltol = 1e-03
    abstol(V) = 1 uV
    abstol(I) = 1 pA
    temp = 27 C
    tnom = 27 C
    tempeffects = all
    errpreset = moderate
    method = traponly
    lteratio = 3.5
    relref = sigglobal
    cmin = 0 F
    gmin = 1 pS


Output and IC/nodeset summary:
                 save   1       (current)
                 save   17      (voltage)

......9......8......7......6......5......4......3......2......1......0
Number of accepted tran steps =             356

Maximum value achieved for any signal of each quantity: 
V: V(I19.PM16:int_d) = 384.7 mV
I: I(V0:p) = 13.4 uA
If your circuit contains signals of the same quantity that are vastly different in size (such as high voltage circuitry combined with low voltage control circuitry), you should consider specifying global option `bin_relref=yes'.

~~~~~~~~~~~~~~~~~~~~~~~~~~~~~~~~~
Post-Transient Simulation Summary
~~~~~~~~~~~~~~~~~~~~~~~~~~~~~~~~~
   -   To further speed up simulation, consider
          add ++aps on command line
~~~~~~~~~~~~~~~~~~~~~~~~~~~~~~~~~


During simulation, the CPU load for active processors is :
         0 (42.8 %)      1 (48.1 %)      2 (2.8 %)       3 (2.4 %)
        Total: 96.2%
Initial condition solution time: CPU = 1.999 ms, elapsed = 2.56491 ms.
Intrinsic tran analysis time:    CPU = 152.977 ms, elapsed = 188.412 ms.
Total time required for tran analysis `trans-000_trans': CPU = 158.976 ms, elapsed = 193.551 ms.
Time accumulated: CPU = 9.52055 s, elapsed = 10.7171 s.
Peak resident memory used = 227 Mbytes.


Warning from spectre.
    WARNING (SPECTRE-17101): The value 'psf' specified for the 'checklimitdest' option will no longer be supported in future releases. Use 'spectre -h' to see other recommended values for the 'checklimitdest' option.
    WARNING (SPECTRE-17101): The value 'psf' specified for the 'checklimitdest' option will no longer be supported in future releases. Use 'spectre -h' to see other recommended values for the 'checklimitdest' option.
    WARNING (SPECTRE-17101): The value 'psf' specified for the 'checklimitdest' option will no longer be supported in future releases. Use 'spectre -h' to see other recommended values for the 'checklimitdest' option.
    WARNING (SPECTRE-17101): The value 'psf' specified for the 'checklimitdest' option will no longer be supported in future releases. Use 'spectre -h' to see other recommended values for the 'checklimitdest' option.


**********************************************************
Transient Analysis `trans-000_trans': time = (0 s -> 1 us)
**********************************************************
DC simulation time: CPU = 2.999 ms, elapsed = 2.76589 ms.

Opening the PSFXL file ./input.raw/trans-000_trans.tran.tran ...
Important parameter values:
    start = 0 s
    outputstart = 0 s
    stop = 1 us
    step = 1 ns
    maxstep = 20 ns
    ic = all
    useprevic = no
    skipdc = no
    reltol = 1e-03
    abstol(V) = 1 uV
    abstol(I) = 1 pA
    temp = 27 C
    tnom = 27 C
    tempeffects = all
    errpreset = moderate
    method = traponly
    lteratio = 3.5
    relref = sigglobal
    cmin = 0 F
    gmin = 1 pS


Output and IC/nodeset summary:
                 save   1       (current)
                 save   17      (voltage)

......9......8......7......6......5......4......3......2......1......0
Number of accepted tran steps =             354

Maximum value achieved for any signal of each quantity: 
V: V(I19.PM16:int_d) = 379.2 mV
I: I(V0:p) = 12.7 uA
If your circuit contains signals of the same quantity that are vastly different in size (such as high voltage circuitry combined with low voltage control circuitry), you should consider specifying global option `bin_relref=yes'.

~~~~~~~~~~~~~~~~~~~~~~~~~~~~~~~~~
Post-Transient Simulation Summary
~~~~~~~~~~~~~~~~~~~~~~~~~~~~~~~~~
   -   To further speed up simulation, consider
          add ++aps on command line
~~~~~~~~~~~~~~~~~~~~~~~~~~~~~~~~~


During simulation, the CPU load for active processors is :
         0 (44.1 %)      1 (46.8 %)      2 (3.0 %)       3 (2.4 %)
        Total: 96.2%
Initial condition solution time: CPU = 2.999 ms, elapsed = 2.8069 ms.
Intrinsic tran analysis time:    CPU = 153.977 ms, elapsed = 202.928 ms.
Total time required for tran analysis `trans-000_trans': CPU = 159.975 ms, elapsed = 208.321 ms.
Time accumulated: CPU = 9.79551 s, elapsed = 11.0442 s.
Peak resident memory used = 227 Mbytes.


Warning from spectre.
    WARNING (SPECTRE-17101): The value 'psf' specified for the 'checklimitdest' option will no longer be supported in future releases. Use 'spectre -h' to see other recommended values for the 'checklimitdest' option.


**********************************************************
Transient Analysis `trans-000_trans': time = (0 s -> 1 us)
**********************************************************
DC simulation time: CPU = 2.999 ms, elapsed = 2.76804 ms.

Opening the PSFXL file ./input.raw/trans-000_trans.tran.tran ...
Important parameter values:
    start = 0 s
    outputstart = 0 s
    stop = 1 us
    step = 1 ns
    maxstep = 20 ns
    ic = all
    useprevic = no
    skipdc = no
    reltol = 1e-03
    abstol(V) = 1 uV
    abstol(I) = 1 pA
    temp = 27 C
    tnom = 27 C
    tempeffects = all
    errpreset = moderate
    method = traponly
    lteratio = 3.5
    relref = sigglobal
    cmin = 0 F
    gmin = 1 pS


Output and IC/nodeset summary:
                 save   1       (current)
                 save   17      (voltage)

......9......8......7......6......5......4......3......2......1......0
Number of accepted tran steps =             354

Maximum value achieved for any signal of each quantity: 
V: V(I19.PM16:int_d) = 379.2 mV
I: I(V0:p) = 12.7 uA
If your circuit contains signals of the same quantity that are vastly different in size (such as high voltage circuitry combined with low voltage control circuitry), you should consider specifying global option `bin_relref=yes'.

~~~~~~~~~~~~~~~~~~~~~~~~~~~~~~~~~
Post-Transient Simulation Summary
~~~~~~~~~~~~~~~~~~~~~~~~~~~~~~~~~
   -   To further speed up simulation, consider
          add ++aps on command line
~~~~~~~~~~~~~~~~~~~~~~~~~~~~~~~~~


During simulation, the CPU load for active processors is :
         0 (45.0 %)      1 (45.9 %)      2 (3.0 %)       3 (2.3 %)
        Total: 96.3%
Initial condition solution time: CPU = 2.999 ms, elapsed = 2.81 ms.
Intrinsic tran analysis time:    CPU = 152.978 ms, elapsed = 195.091 ms.
Total time required for tran analysis `trans-000_trans': CPU = 158.975 ms, elapsed = 200.462 ms.
Time accumulated: CPU = 9.98548 s, elapsed = 11.2759 s.
Peak resident memory used = 227 Mbytes.


Warning from spectre.
    WARNING (SPECTRE-17101): The value 'psf' specified for the 'checklimitdest' option will no longer be supported in future releases. Use 'spectre -h' to see other recommended values for the 'checklimitdest' option.
    WARNING (SPECTRE-17101): The value 'psf' specified for the 'checklimitdest' option will no longer be supported in future releases. Use 'spectre -h' to see other recommended values for the 'checklimitdest' option.


**********************************************************
Transient Analysis `trans-000_trans': time = (0 s -> 1 us)
**********************************************************
DC simulation time: CPU = 1.999 ms, elapsed = 3.22485 ms.

Opening the PSFXL file ./input.raw/trans-000_trans.tran.tran ...
Important parameter values:
    start = 0 s
    outputstart = 0 s
    stop = 1 us
    step = 1 ns
    maxstep = 20 ns
    ic = all
    useprevic = no
    skipdc = no
    reltol = 1e-03
    abstol(V) = 1 uV
    abstol(I) = 1 pA
    temp = 27 C
    tnom = 27 C
    tempeffects = all
    errpreset = moderate
    method = traponly
    lteratio = 3.5
    relref = sigglobal
    cmin = 0 F
    gmin = 1 pS


Output and IC/nodeset summary:
                 save   1       (current)
                 save   17      (voltage)

......9......8......7......6......5......4......3......2......1......0
Number of accepted tran steps =             354

Maximum value achieved for any signal of each quantity: 
V: V(I19.PM16:int_d) = 379.2 mV
I: I(V0:p) = 12.7 uA
If your circuit contains signals of the same quantity that are vastly different in size (such as high voltage circuitry combined with low voltage control circuitry), you should consider specifying global option `bin_relref=yes'.

~~~~~~~~~~~~~~~~~~~~~~~~~~~~~~~~~
Post-Transient Simulation Summary
~~~~~~~~~~~~~~~~~~~~~~~~~~~~~~~~~
   -   To further speed up simulation, consider
          add ++aps on command line
~~~~~~~~~~~~~~~~~~~~~~~~~~~~~~~~~


During simulation, the CPU load for active processors is :
         0 (46.0 %)      1 (44.9 %)      2 (3.0 %)       3 (2.3 %)
        Total: 96.2%
Initial condition solution time: CPU = 1.999 ms, elapsed = 3.268 ms.
Intrinsic tran analysis time:    CPU = 159.976 ms, elapsed = 197.961 ms.
Total time required for tran analysis `trans-000_trans': CPU = 165.974 ms, elapsed = 203.944 ms.
Time accumulated: CPU = 10.2094 s, elapsed = 11.541 s.
Peak resident memory used = 227 Mbytes.


Warning from spectre.
    WARNING (SPECTRE-17101): The value 'psf' specified for the 'checklimitdest' option will no longer be supported in future releases. Use 'spectre -h' to see other recommended values for the 'checklimitdest' option.
    WARNING (SPECTRE-17101): The value 'psf' specified for the 'checklimitdest' option will no longer be supported in future releases. Use 'spectre -h' to see other recommended values for the 'checklimitdest' option.


**********************************************************
Transient Analysis `trans-000_trans': time = (0 s -> 1 us)
**********************************************************
DC simulation time: CPU = 3 ms, elapsed = 2.75707 ms.

Opening the PSFXL file ./input.raw/trans-000_trans.tran.tran ...
Important parameter values:
    start = 0 s
    outputstart = 0 s
    stop = 1 us
    step = 1 ns
    maxstep = 20 ns
    ic = all
    useprevic = no
    skipdc = no
    reltol = 1e-03
    abstol(V) = 1 uV
    abstol(I) = 1 pA
    temp = 27 C
    tnom = 27 C
    tempeffects = all
    errpreset = moderate
    method = traponly
    lteratio = 3.5
    relref = sigglobal
    cmin = 0 F
    gmin = 1 pS


Output and IC/nodeset summary:
                 save   1       (current)
                 save   17      (voltage)

......9......8......7......6......5......4......3......2......1......0
Number of accepted tran steps =             354

Maximum value achieved for any signal of each quantity: 
V: V(I19.PM16:int_d) = 379.2 mV
I: I(V0:p) = 12.7 uA
If your circuit contains signals of the same quantity that are vastly different in size (such as high voltage circuitry combined with low voltage control circuitry), you should consider specifying global option `bin_relref=yes'.

~~~~~~~~~~~~~~~~~~~~~~~~~~~~~~~~~
Post-Transient Simulation Summary
~~~~~~~~~~~~~~~~~~~~~~~~~~~~~~~~~
   -   To further speed up simulation, consider
          add ++aps on command line
~~~~~~~~~~~~~~~~~~~~~~~~~~~~~~~~~


During simulation, the CPU load for active processors is :
         0 (47.0 %)      1 (44.0 %)      2 (3.1 %)       3 (2.2 %)
        Total: 96.3%
Initial condition solution time: CPU = 3 ms, elapsed = 2.79808 ms.
Intrinsic tran analysis time:    CPU = 154.976 ms, elapsed = 188.533 ms.
Total time required for tran analysis `trans-000_trans': CPU = 160.976 ms, elapsed = 193.873 ms.
Time accumulated: CPU = 10.4284 s, elapsed = 11.7949 s.
Peak resident memory used = 227 Mbytes.


Warning from spectre.
    WARNING (SPECTRE-17101): The value 'psf' specified for the 'checklimitdest' option will no longer be supported in future releases. Use 'spectre -h' to see other recommended values for the 'checklimitdest' option.
    WARNING (SPECTRE-17101): The value 'psf' specified for the 'checklimitdest' option will no longer be supported in future releases. Use 'spectre -h' to see other recommended values for the 'checklimitdest' option.


**********************************************************
Transient Analysis `trans-000_trans': time = (0 s -> 1 us)
**********************************************************
DC simulation time: CPU = 2 ms, elapsed = 2.81501 ms.

Opening the PSFXL file ./input.raw/trans-000_trans.tran.tran ...
Important parameter values:
    start = 0 s
    outputstart = 0 s
    stop = 1 us
    step = 1 ns
    maxstep = 20 ns
    ic = all
    useprevic = no
    skipdc = no
    reltol = 1e-03
    abstol(V) = 1 uV
    abstol(I) = 1 pA
    temp = 27 C
    tnom = 27 C
    tempeffects = all
    errpreset = moderate
    method = traponly
    lteratio = 3.5
    relref = sigglobal
    cmin = 0 F
    gmin = 1 pS


Output and IC/nodeset summary:
                 save   1       (current)
                 save   17      (voltage)

......9......8......7......6......5......4......3......2......1......0
Number of accepted tran steps =             354

Maximum value achieved for any signal of each quantity: 
V: V(I19.PM16:int_d) = 379.2 mV
I: I(V0:p) = 12.7 uA
If your circuit contains signals of the same quantity that are vastly different in size (such as high voltage circuitry combined with low voltage control circuitry), you should consider specifying global option `bin_relref=yes'.

~~~~~~~~~~~~~~~~~~~~~~~~~~~~~~~~~
Post-Transient Simulation Summary
~~~~~~~~~~~~~~~~~~~~~~~~~~~~~~~~~
   -   To further speed up simulation, consider
          add ++aps on command line
~~~~~~~~~~~~~~~~~~~~~~~~~~~~~~~~~


During simulation, the CPU load for active processors is :
         0 (46.5 %)      1 (43.2 %)      2 (4.4 %)       3 (2.2 %)
        Total: 96.3%
Initial condition solution time: CPU = 2.999 ms, elapsed = 2.87914 ms.
Intrinsic tran analysis time:    CPU = 152.977 ms, elapsed = 184.53 ms.
Total time required for tran analysis `trans-000_trans': CPU = 158.975 ms, elapsed = 190.374 ms.
Time accumulated: CPU = 10.6454 s, elapsed = 12.0441 s.
Peak resident memory used = 227 Mbytes.


Warning from spectre.
    WARNING (SPECTRE-17101): The value 'psf' specified for the 'checklimitdest' option will no longer be supported in future releases. Use 'spectre -h' to see other recommended values for the 'checklimitdest' option.
    WARNING (SPECTRE-17101): The value 'psf' specified for the 'checklimitdest' option will no longer be supported in future releases. Use 'spectre -h' to see other recommended values for the 'checklimitdest' option.
    WARNING (SPECTRE-17101): The value 'psf' specified for the 'checklimitdest' option will no longer be supported in future releases. Use 'spectre -h' to see other recommended values for the 'checklimitdest' option.
    WARNING (SPECTRE-17101): The value 'psf' specified for the 'checklimitdest' option will no longer be supported in future releases. Use 'spectre -h' to see other recommended values for the 'checklimitdest' option.


**********************************************************
Transient Analysis `trans-000_trans': time = (0 s -> 1 us)
**********************************************************

Notice from spectre during IC analysis, during transient analysis `trans-000_trans', during task `MDLControl'.
    GminDC = 1 pS is large enough to noticeably affect the DC solution.
        dV(I19.PM16:int_s) = 10.5195 uV
        Use the `gmin_check' option to eliminate or expand this report.

DC simulation time: CPU = 3.999 ms, elapsed = 4.09389 ms.

Opening the PSFXL file ./input.raw/trans-000_trans.tran.tran ...
Important parameter values:
    start = 0 s
    outputstart = 0 s
    stop = 1 us
    step = 1 ns
    maxstep = 20 ns
    ic = all
    useprevic = no
    skipdc = no
    reltol = 1e-03
    abstol(V) = 1 uV
    abstol(I) = 1 pA
    temp = 27 C
    tnom = 27 C
    tempeffects = all
    errpreset = moderate
    method = traponly
    lteratio = 3.5
    relref = sigglobal
    cmin = 0 F
    gmin = 1 pS


Output and IC/nodeset summary:
                 save   1       (current)
                 save   17      (voltage)

......9......8......7......6......5......4......3......2......1......0
Number of accepted tran steps =             334

Maximum value achieved for any signal of each quantity: 
V: V(I19.PM15:int_d) = 377.4 mV
I: I(V0:p) = 11.5 uA
If your circuit contains signals of the same quantity that are vastly different in size (such as high voltage circuitry combined with low voltage control circuitry), you should consider specifying global option `bin_relref=yes'.

~~~~~~~~~~~~~~~~~~~~~~~~~~~~~~~~~
Post-Transient Simulation Summary
~~~~~~~~~~~~~~~~~~~~~~~~~~~~~~~~~
   -   To further speed up simulation, consider
          add ++aps on command line
~~~~~~~~~~~~~~~~~~~~~~~~~~~~~~~~~


During simulation, the CPU load for active processors is :
         0 (46.7 %)      1 (42.4 %)      2 (5.3 %)       3 (2.1 %)
        Total: 96.4%
Initial condition solution time: CPU = 3.999 ms, elapsed = 4.13203 ms.
Intrinsic tran analysis time:    CPU = 143.978 ms, elapsed = 194.844 ms.
Total time required for tran analysis `trans-000_trans': CPU = 149.977 ms, elapsed = 201.643 ms.
Time accumulated: CPU = 10.9083 s, elapsed = 12.3593 s.
Peak resident memory used = 227 Mbytes.


Warning from spectre.
    WARNING (SPECTRE-17101): The value 'psf' specified for the 'checklimitdest' option will no longer be supported in future releases. Use 'spectre -h' to see other recommended values for the 'checklimitdest' option.
    WARNING (SPECTRE-17101): The value 'psf' specified for the 'checklimitdest' option will no longer be supported in future releases. Use 'spectre -h' to see other recommended values for the 'checklimitdest' option.
    WARNING (SPECTRE-17101): The value 'psf' specified for the 'checklimitdest' option will no longer be supported in future releases. Use 'spectre -h' to see other recommended values for the 'checklimitdest' option.
    WARNING (SPECTRE-17101): The value 'psf' specified for the 'checklimitdest' option will no longer be supported in future releases. Use 'spectre -h' to see other recommended values for the 'checklimitdest' option.


**********************************************************
Transient Analysis `trans-000_trans': time = (0 s -> 1 us)
**********************************************************
DC simulation time: CPU = 3 ms, elapsed = 2.73013 ms.

Opening the PSFXL file ./input.raw/trans-000_trans.tran.tran ...
Important parameter values:
    start = 0 s
    outputstart = 0 s
    stop = 1 us
    step = 1 ns
    maxstep = 20 ns
    ic = all
    useprevic = no
    skipdc = no
    reltol = 1e-03
    abstol(V) = 1 uV
    abstol(I) = 1 pA
    temp = 27 C
    tnom = 27 C
    tempeffects = all
    errpreset = moderate
    method = traponly
    lteratio = 3.5
    relref = sigglobal
    cmin = 0 F
    gmin = 1 pS


Output and IC/nodeset summary:
                 save   1       (current)
                 save   17      (voltage)

......9......8......7......6......5......4......3......2......1......0
Number of accepted tran steps =             354

Maximum value achieved for any signal of each quantity: 
V: V(I19.PM16:int_d) = 377.1 mV
I: I(V0:p) = 12.56 uA
If your circuit contains signals of the same quantity that are vastly different in size (such as high voltage circuitry combined with low voltage control circuitry), you should consider specifying global option `bin_relref=yes'.

~~~~~~~~~~~~~~~~~~~~~~~~~~~~~~~~~
Post-Transient Simulation Summary
~~~~~~~~~~~~~~~~~~~~~~~~~~~~~~~~~
   -   To further speed up simulation, consider
          add ++aps on command line
~~~~~~~~~~~~~~~~~~~~~~~~~~~~~~~~~


During simulation, the CPU load for active processors is :
         0 (47.7 %)      1 (41.4 %)      2 (5.2 %)       3 (2.1 %)
        Total: 96.4%
Initial condition solution time: CPU = 3 ms, elapsed = 2.77209 ms.
Intrinsic tran analysis time:    CPU = 152.977 ms, elapsed = 203.307 ms.
Total time required for tran analysis `trans-000_trans': CPU = 156.977 ms, elapsed = 208.6 ms.
Time accumulated: CPU = 11.1813 s, elapsed = 12.6854 s.
Peak resident memory used = 227 Mbytes.


Warning from spectre.
[...]
Time accumulated: CPU = 35.8396 s, elapsed = 41.1131 s.
Peak resident memory used = 228 Mbytes.


Warning from spectre.
    WARNING (SPECTRE-17101): The value 'psf' specified for the 'checklimitdest' option will no longer be supported in future releases. Use 'spectre -h' to see other recommended values for the 'checklimitdest' option.
    WARNING (SPECTRE-17101): The value 'psf' specified for the 'checklimitdest' option will no longer be supported in future releases. Use 'spectre -h' to see other recommended values for the 'checklimitdest' option.


**********************************************************
Transient Analysis `trans-000_trans': time = (0 s -> 1 us)
**********************************************************

Notice from spectre during IC analysis, during transient analysis `trans-000_trans', during task `MDLControl'.
    GminDC = 1 pS is large enough to noticeably affect the DC solution.
        dV(I19.NM10:int_d) = -1.45971 mV
        Use the `gmin_check' option to eliminate or expand this report.

DC simulation time: CPU = 3.999 ms, elapsed = 3.64089 ms.

Opening the PSFXL file ./input.raw/trans-000_trans.tran.tran ...
Important parameter values:
    start = 0 s
    outputstart = 0 s
    stop = 1 us
    step = 1 ns
    maxstep = 20 ns
    ic = all
    useprevic = no
    skipdc = no
    reltol = 1e-03
    abstol(V) = 1 uV
    abstol(I) = 1 pA
    temp = 27 C
    tnom = 27 C
    tempeffects = all
    errpreset = moderate
    method = traponly
    lteratio = 3.5
    relref = sigglobal
    cmin = 0 F
    gmin = 1 pS


Output and IC/nodeset summary:
                 save   1       (current)
                 save   17      (voltage)

......9......8......7......6......5......4......3......2......1......

Notice from spectre at time = 1 us during transient analysis `trans-000_trans', during task `MDLControl'.
    Found trapezoidal ringing on node V0:p.

......9......8......7......6......5......4......3......2......1......0
Number of accepted tran steps =             343

Notice from spectre during transient analysis `trans-000_trans', during task `MDLControl'.
    Trapezoidal ringing is detected during tran analysis.
        Please use method=trap for better results and performance.


Maximum value achieved for any signal of each quantity: 
V: V(I19.PM15:int_d) = 377.2 mV
I: I(V0:p) = 11.63 uA
If your circuit contains signals of the same quantity that are vastly different in size (such as high voltage circuitry combined with low voltage control circuitry), you should consider specifying global option `bin_relref=yes'.

~~~~~~~~~~~~~~~~~~~~~~~~~~~~~~~~~
Post-Transient Simulation Summary
~~~~~~~~~~~~~~~~~~~~~~~~~~~~~~~~~
   -   To further speed up simulation, consider
          add ++aps on command line
~~~~~~~~~~~~~~~~~~~~~~~~~~~~~~~~~


During simulation, the CPU load for active processors is :
         0 (65.5 %)      1 (25.8 %)      2 (6.2 %)       3 (2.3 %)
        Total: 99.9%
Initial condition solution time: CPU = 3.999 ms, elapsed = 3.67689 ms.
Intrinsic tran analysis time:    CPU = 152.976 ms, elapsed = 182.585 ms.
Total time required for tran analysis `trans-000_trans': CPU = 158.975 ms, elapsed = 188.866 ms.
Time accumulated: CPU = 36.0575 s, elapsed = 41.3623 s.
Peak resident memory used = 228 Mbytes.


**********************************************************
Transient Analysis `trans-000_trans': time = (0 s -> 1 us)
**********************************************************

Notice from spectre during IC analysis, during transient analysis `trans-000_trans', during task `MDLControl'.
    GminDC = 1 pS is large enough to noticeably affect the DC solution.
        dV(I19.NM10:int_d) = -1.45971 mV
        Use the `gmin_check' option to eliminate or expand this report.

DC simulation time: CPU = 4 ms, elapsed = 4.23384 ms.

Opening the PSFXL file ./input.raw/trans-000_trans.tran.tran ...
Important parameter values:
    start = 0 s
    outputstart = 0 s
    stop = 1 us
    step = 1 ns
    maxstep = 20 ns
    ic = all
    useprevic = no
    skipdc = no
    reltol = 1e-03
    abstol(V) = 1 uV
    abstol(I) = 1 pA
    temp = 27 C
    tnom = 27 C
    tempeffects = all
    errpreset = moderate
    method = traponly
    lteratio = 3.5
    relref = sigglobal
    cmin = 0 F
    gmin = 1 pS


Output and IC/nodeset summary:
                 save   1       (current)
                 save   17      (voltage)

......9......8......7......6......5......4......3......2......1......

Notice from spectre at time = 1 us during transient analysis `trans-000_trans', during task `MDLControl'.
    Found trapezoidal ringing on node V0:p.

......9......8......7......6......5......4......3......2......1......0
Number of accepted tran steps =             343

Notice from spectre during transient analysis `trans-000_trans', during task `MDLControl'.
    Trapezoidal ringing is detected during tran analysis.
        Please use method=trap for better results and performance.


Maximum value achieved for any signal of each quantity: 
V: V(I19.PM15:int_d) = 377.2 mV
I: I(V0:p) = 11.63 uA
If your circuit contains signals of the same quantity that are vastly different in size (such as high voltage circuitry combined with low voltage control circuitry), you should consider specifying global option `bin_relref=yes'.

~~~~~~~~~~~~~~~~~~~~~~~~~~~~~~~~~
Post-Transient Simulation Summary
~~~~~~~~~~~~~~~~~~~~~~~~~~~~~~~~~
   -   To further speed up simulation, consider
          add ++aps on command line
~~~~~~~~~~~~~~~~~~~~~~~~~~~~~~~~~


During simulation, the CPU load for active processors is :
         0 (65.2 %)      1 (26.1 %)      2 (6.2 %)       3 (2.3 %)
        Total: 99.8%
Initial condition solution time: CPU = 4 ms, elapsed = 4.27198 ms.
Intrinsic tran analysis time:    CPU = 155.976 ms, elapsed = 185.808 ms.
Total time required for tran analysis `trans-000_trans': CPU = 160.976 ms, elapsed = 192.739 ms.
Time accumulated: CPU = 36.2215 s, elapsed = 41.5568 s.
Peak resident memory used = 228 Mbytes.


**********************************************************
Transient Analysis `trans-000_trans': time = (0 s -> 1 us)
**********************************************************

Notice from spectre during IC analysis, during transient analysis `trans-000_trans', during task `MDLControl'.
    GminDC = 1 pS is large enough to noticeably affect the DC solution.
        dV(I19.NM10:int_d) = -1.45971 mV
        Use the `gmin_check' option to eliminate or expand this report.

DC simulation time: CPU = 3.999 ms, elapsed = 3.757 ms.

Opening the PSFXL file ./input.raw/trans-000_trans.tran.tran ...
Important parameter values:
    start = 0 s
    outputstart = 0 s
    stop = 1 us
    step = 1 ns
    maxstep = 20 ns
    ic = all
    useprevic = no
    skipdc = no
    reltol = 1e-03
    abstol(V) = 1 uV
    abstol(I) = 1 pA
    temp = 27 C
    tnom = 27 C
    tempeffects = all
    errpreset = moderate
    method = traponly
    lteratio = 3.5
    relref = sigglobal
    cmin = 0 F
    gmin = 1 pS


Output and IC/nodeset summary:
                 save   1       (current)
                 save   17      (voltage)

......9......8......7......6......5......4......3......2......1......

Notice from spectre at time = 1 us during transient analysis `trans-000_trans', during task `MDLControl'.
    Found trapezoidal ringing on node V0:p.

......9......8......7......6......5......4......3......2......1......0
Number of accepted tran steps =             343

Notice from spectre during transient analysis `trans-000_trans', during task `MDLControl'.
    Trapezoidal ringing is detected during tran analysis.
        Please use method=trap for better results and performance.


Maximum value achieved for any signal of each quantity: 
V: V(I19.PM15:int_d) = 377.2 mV
I: I(V0:p) = 11.63 uA
If your circuit contains signals of the same quantity that are vastly different in size (such as high voltage circuitry combined with low voltage control circuitry), you should consider specifying global option `bin_relref=yes'.

~~~~~~~~~~~~~~~~~~~~~~~~~~~~~~~~~
Post-Transient Simulation Summary
~~~~~~~~~~~~~~~~~~~~~~~~~~~~~~~~~
   -   To further speed up simulation, consider
          add ++aps on command line
~~~~~~~~~~~~~~~~~~~~~~~~~~~~~~~~~


During simulation, the CPU load for active processors is :
         0 (65.3 %)      1 (26.0 %)      2 (6.2 %)       3 (2.3 %)
        Total: 99.8%
Initial condition solution time: CPU = 3.999 ms, elapsed = 3.79395 ms.
Intrinsic tran analysis time:    CPU = 155.977 ms, elapsed = 193.631 ms.
Total time required for tran analysis `trans-000_trans': CPU = 161.975 ms, elapsed = 199.729 ms.
Time accumulated: CPU = 36.3845 s, elapsed = 41.7584 s.
Peak resident memory used = 228 Mbytes.


**********************************************************
Transient Analysis `trans-000_trans': time = (0 s -> 1 us)
**********************************************************

Notice from spectre during IC analysis, during transient analysis `trans-000_trans', during task `MDLControl'.
    GminDC = 1 pS is large enough to noticeably affect the DC solution.
        dV(I19.NM10:int_d) = -1.45971 mV
        Use the `gmin_check' option to eliminate or expand this report.

DC simulation time: CPU = 4 ms, elapsed = 3.79014 ms.

Opening the PSFXL file ./input.raw/trans-000_trans.tran.tran ...
Important parameter values:
    start = 0 s
    outputstart = 0 s
    stop = 1 us
    step = 1 ns
    maxstep = 20 ns
    ic = all
    useprevic = no
    skipdc = no
    reltol = 1e-03
    abstol(V) = 1 uV
    abstol(I) = 1 pA
    temp = 27 C
    tnom = 27 C
    tempeffects = all
    errpreset = moderate
    method = traponly
    lteratio = 3.5
    relref = sigglobal
    cmin = 0 F
    gmin = 1 pS


Output and IC/nodeset summary:
                 save   1       (current)
                 save   17      (voltage)

......9......8......7......6......5......4......3......2......1......

Notice from spectre at time = 1 us during transient analysis `trans-000_trans', during task `MDLControl'.
    Found trapezoidal ringing on node V0:p.

......9......8......7......6......5......4......3......2......1......0
Number of accepted tran steps =             343

Notice from spectre during transient analysis `trans-000_trans', during task `MDLControl'.
    Trapezoidal ringing is detected during tran analysis.
        Please use method=trap for better results and performance.


Maximum value achieved for any signal of each quantity: 
V: V(I19.PM15:int_d) = 377.2 mV
I: I(V0:p) = 11.63 uA
If your circuit contains signals of the same quantity that are vastly different in size (such as high voltage circuitry combined with low voltage control circuitry), you should consider specifying global option `bin_relref=yes'.

~~~~~~~~~~~~~~~~~~~~~~~~~~~~~~~~~
Post-Transient Simulation Summary
~~~~~~~~~~~~~~~~~~~~~~~~~~~~~~~~~
   -   To further speed up simulation, consider
          add ++aps on command line
~~~~~~~~~~~~~~~~~~~~~~~~~~~~~~~~~


During simulation, the CPU load for active processors is :
         0 (65.4 %)      1 (25.9 %)      2 (6.1 %)       3 (2.3 %)
        Total: 99.7%
Initial condition solution time: CPU = 4 ms, elapsed = 3.8271 ms.
Intrinsic tran analysis time:    CPU = 150.977 ms, elapsed = 196.417 ms.
Total time required for tran analysis `trans-000_trans': CPU = 156.977 ms, elapsed = 202.597 ms.
Time accumulated: CPU = 36.5444 s, elapsed = 41.9628 s.
Peak resident memory used = 228 Mbytes.


**********************************************************
Transient Analysis `trans-000_trans': time = (0 s -> 1 us)
**********************************************************

Notice from spectre during IC analysis, during transient analysis `trans-000_trans', during task `MDLControl'.
    GminDC = 1 pS is large enough to noticeably affect the DC solution.
        dV(I19.NM10:int_d) = -1.45971 mV
        Use the `gmin_check' option to eliminate or expand this report.

DC simulation time: CPU = 3.999 ms, elapsed = 3.69596 ms.

Opening the PSFXL file ./input.raw/trans-000_trans.tran.tran ...
Important parameter values:
    start = 0 s
    outputstart = 0 s
    stop = 1 us
    step = 1 ns
    maxstep = 20 ns
    ic = all
    useprevic = no
    skipdc = no
    reltol = 1e-03
    abstol(V) = 1 uV
    abstol(I) = 1 pA
    temp = 27 C
    tnom = 27 C
    tempeffects = all
    errpreset = moderate
    method = traponly
    lteratio = 3.5
    relref = sigglobal
    cmin = 0 F
    gmin = 1 pS


Output and IC/nodeset summary:
                 save   1       (current)
                 save   17      (voltage)

......9......8......7......6......5......4......3......2......1......

Notice from spectre at time = 1 us during transient analysis `trans-000_trans', during task `MDLControl'.
    Found trapezoidal ringing on node V0:p.

......9......8......7......6......5......4......3......2......1......0
Number of accepted tran steps =             343

Notice from spectre during transient analysis `trans-000_trans', during task `MDLControl'.
    Trapezoidal ringing is detected during tran analysis.
        Please use method=trap for better results and performance.


Maximum value achieved for any signal of each quantity: 
V: V(I19.PM15:int_d) = 377.2 mV
I: I(V0:p) = 11.63 uA
If your circuit contains signals of the same quantity that are vastly different in size (such as high voltage circuitry combined with low voltage control circuitry), you should consider specifying global option `bin_relref=yes'.

~~~~~~~~~~~~~~~~~~~~~~~~~~~~~~~~~
Post-Transient Simulation Summary
~~~~~~~~~~~~~~~~~~~~~~~~~~~~~~~~~
   -   To further speed up simulation, consider
          add ++aps on command line
~~~~~~~~~~~~~~~~~~~~~~~~~~~~~~~~~


During simulation, the CPU load for active processors is :
         0 (65.5 %)      1 (25.8 %)      2 (6.1 %)       3 (2.3 %)
        Total: 99.7%
Initial condition solution time: CPU = 3.999 ms, elapsed = 3.73101 ms.
Intrinsic tran analysis time:    CPU = 154.977 ms, elapsed = 188.15 ms.
Total time required for tran analysis `trans-000_trans': CPU = 160.975 ms, elapsed = 194.186 ms.
Time accumulated: CPU = 36.7074 s, elapsed = 42.1588 s.
Peak resident memory used = 228 Mbytes.


**********************************************************
Transient Analysis `trans-000_trans': time = (0 s -> 1 us)
**********************************************************

Notice from spectre during IC analysis, during transient analysis `trans-000_trans', during task `MDLControl'.
    GminDC = 1 pS is large enough to noticeably affect the DC solution.
        dV(I19.NM10:int_d) = -1.45971 mV
        Use the `gmin_check' option to eliminate or expand this report.

DC simulation time: CPU = 3.999 ms, elapsed = 3.70884 ms.

Opening the PSFXL file ./input.raw/trans-000_trans.tran.tran ...
Important parameter values:
    start = 0 s
    outputstart = 0 s
    stop = 1 us
    step = 1 ns
    maxstep = 20 ns
    ic = all
    useprevic = no
    skipdc = no
    reltol = 1e-03
    abstol(V) = 1 uV
    abstol(I) = 1 pA
    temp = 27 C
    tnom = 27 C
    tempeffects = all
    errpreset = moderate
    method = traponly
    lteratio = 3.5
    relref = sigglobal
    cmin = 0 F
    gmin = 1 pS


Output and IC/nodeset summary:
                 save   1       (current)
                 save   17      (voltage)

......9......8......7......6......5......4......3......2......1......

Notice from spectre at time = 1 us during transient analysis `trans-000_trans', during task `MDLControl'.
    Found trapezoidal ringing on node V0:p.

......9......8......7......6......5......4......3......2......1......0
Number of accepted tran steps =             343

Notice from spectre during transient analysis `trans-000_trans', during task `MDLControl'.
    Trapezoidal ringing is detected during tran analysis.
        Please use method=trap for better results and performance.


Maximum value achieved for any signal of each quantity: 
V: V(I19.PM15:int_d) = 377.2 mV
I: I(V0:p) = 11.63 uA
If your circuit contains signals of the same quantity that are vastly different in size (such as high voltage circuitry combined with low voltage control circuitry), you should consider specifying global option `bin_relref=yes'.

~~~~~~~~~~~~~~~~~~~~~~~~~~~~~~~~~
Post-Transient Simulation Summary
~~~~~~~~~~~~~~~~~~~~~~~~~~~~~~~~~
   -   To further speed up simulation, consider
          add ++aps on command line
~~~~~~~~~~~~~~~~~~~~~~~~~~~~~~~~~


During simulation, the CPU load for active processors is :
         0 (65.6 %)      1 (25.7 %)      2 (6.1 %)       3 (2.3 %)
        Total: 99.6%
Initial condition solution time: CPU = 3.999 ms, elapsed = 3.74603 ms.
Intrinsic tran analysis time:    CPU = 155.976 ms, elapsed = 192.804 ms.
Total time required for tran analysis `trans-000_trans': CPU = 161.975 ms, elapsed = 198.906 ms.
Time accumulated: CPU = 36.8714 s, elapsed = 42.3595 s.
Peak resident memory used = 228 Mbytes.


**********************************************************
Transient Analysis `trans-000_trans': time = (0 s -> 1 us)
**********************************************************

Notice from spectre during IC analysis, during transient analysis `trans-000_trans', during task `MDLControl'.
    GminDC = 1 pS is large enough to noticeably affect the DC solution.
        dV(I19.NM10:int_d) = -1.45971 mV
        Use the `gmin_check' option to eliminate or expand this report.

DC simulation time: CPU = 4 ms, elapsed = 3.71599 ms.

Opening the PSFXL file ./input.raw/trans-000_trans.tran.tran ...
Important parameter values:
    start = 0 s
    outputstart = 0 s
    stop = 1 us
    step = 1 ns
    maxstep = 20 ns
    ic = all
    useprevic = no
    skipdc = no
    reltol = 1e-03
    abstol(V) = 1 uV
    abstol(I) = 1 pA
    temp = 27 C
    tnom = 27 C
    tempeffects = all
    errpreset = moderate
    method = traponly
    lteratio = 3.5
    relref = sigglobal
    cmin = 0 F
    gmin = 1 pS


Output and IC/nodeset summary:
                 save   1       (current)
                 save   17      (voltage)

......9......8......7......6......5......4......3......2......1......

Notice from spectre at time = 1 us during transient analysis `trans-000_trans', during task `MDLControl'.
    Found trapezoidal ringing on node V0:p.

......9......8......7......6......5......4......3......2......1......0
Number of accepted tran steps =             343

Notice from spectre during transient analysis `trans-000_trans', during task `MDLControl'.
    Trapezoidal ringing is detected during tran analysis.
        Please use method=trap for better results and performance.


Maximum value achieved for any signal of each quantity: 
V: V(I19.PM15:int_d) = 377.2 mV
I: I(V0:p) = 11.63 uA
If your circuit contains signals of the same quantity that are vastly different in size (such as high voltage circuitry combined with low voltage control circuitry), you should consider specifying global option `bin_relref=yes'.

~~~~~~~~~~~~~~~~~~~~~~~~~~~~~~~~~
Post-Transient Simulation Summary
~~~~~~~~~~~~~~~~~~~~~~~~~~~~~~~~~
   -   To further speed up simulation, consider
          add ++aps on command line
~~~~~~~~~~~~~~~~~~~~~~~~~~~~~~~~~


During simulation, the CPU load for active processors is :
         0 (65.6 %)      1 (25.6 %)      2 (6.1 %)       3 (2.3 %)
        Total: 99.6%
Initial condition solution time: CPU = 4 ms, elapsed = 3.75199 ms.
Intrinsic tran analysis time:    CPU = 148.978 ms, elapsed = 178.523 ms.
Total time required for tran analysis `trans-000_trans': CPU = 155.976 ms, elapsed = 184.616 ms.
Time accumulated: CPU = 37.0284 s, elapsed = 42.5459 s.
Peak resident memory used = 228 Mbytes.


Aggregate audit (3:01:29 PM, Fri Dec 10, 2021):
Time used: CPU = 37.2 s, elapsed = 42.7 s, util. = 87%.
Time spent in licensing: elapsed = 229 ms.
Peak memory used = 229 Mbytes.
Simulation started at: 3:00:46 PM, Fri Dec 10, 2021, ended at: 3:01:29 PM, Fri Dec 10, 2021, with elapsed time (wall clock): 42.7 s.
spectre completes with 0 errors, 320 warnings, and 283 notices.
