
Spectre (R) Circuit Simulator
Version 19.1.0.396.isr8 64bit -- 19 Jun 2020
Copyright (C) 1989-2020 Cadence Design Systems, Inc. All rights reserved worldwide. Cadence and Spectre are registered trademarks of Cadence Design Systems, Inc. All others are the property of their respective holders.

Includes RSA BSAFE(R) Cryptographic or Security Protocol Software from RSA Security, Inc.

User: VLSI_ANALOG   Host: cad19   HostID: 7F0100   PID: 17960
Memory  available: 216.7029 MB  physical: 3.9726 GB
Linux   : Red Hat Enterprise Linux Server release 6.9 (Santiago)
CPU Type: Intel(R) Core(TM) i5-2320 CPU @ 3.00GHz
All processors running at 1600.0 MHz
        Socket: Processors
        0:       0,  1,  2,  3
        
System load averages (1min, 5min, 15min) : 2.8 %, 9.0 %, 7.5 %


Simulating `./input.scs' on cad19 at 3:48:08 PM, Mon Dec 27, 2021 (process id: 17960).
Current working directory: /home/VLSI_ANALOG/UMC40/Optimisation/DFFRM1
Command line:
    /home/installs/SPECTRE191/tools.lnx86/bin/spectre -64 =mdl  \
        input.mdl ./input.scs

Loading /home/installs/SPECTRE191/tools.lnx86/cmi/lib/64bit/5.0/libinfineon_sh.so ...
Loading /home/installs/SPECTRE191/tools.lnx86/cmi/lib/64bit/5.0/libphilips_o_sh.so ...
Loading /home/installs/SPECTRE191/tools.lnx86/cmi/lib/64bit/5.0/libphilips_sh.so ...
Loading /home/installs/SPECTRE191/tools.lnx86/cmi/lib/64bit/5.0/libsparam_sh.so ...
Loading /home/installs/SPECTRE191/tools.lnx86/cmi/lib/64bit/5.0/libstmodels_sh.so ...
Loading /home/installs/SPECTRE191/tools.lnx86/spectre/lib/64bit/mdl/libSpectreEH_sh.so ...
Reading file:  /home/VLSI_ANALOG/UMC40/Optimisation/DFFRM1/input.mdl
Reading file:  /home/VLSI_ANALOG/UMC40/Optimisation/DFFRM1/input.scs
Reading file:  /home/installs/SPECTRE191/tools.lnx86/spectre/etc/configs/spectre.cfg
Reading file:  /home/VLSI_ANALOG/UMC40/FDK_LP/Models/Spectre/l40lp_rf_v152_e.lib.scs
Reading file:  /home/VLSI_ANALOG/UMC40/FDK_LP/Models/Spectre/l40lp_mm_v1101_e.lib.scs
Time for NDB Parsing: CPU = 1.3448 s, elapsed = 1.62886 s.
Time accumulated: CPU = 1.49677 s, elapsed = 1.62887 s.
Peak resident memory used = 114 Mbytes.

Time for Elaboration: CPU = 58.991 ms, elapsed = 58.876 ms.
Time accumulated: CPU = 1.55576 s, elapsed = 1.68789 s.
Peak resident memory used = 124 Mbytes.


Warning from spectre during hierarchy flattening.
    WARNING (SPECTRE-17101): The value 'psf' specified for the 'checklimitdest' option will no longer be supported in future releases. Use 'spectre -h' to see other recommended values for the 'checklimitdest' option.


Time for EDB Visiting: CPU = 2 ms, elapsed = 1.6861 ms.
Time accumulated: CPU = 1.55776 s, elapsed = 1.68973 s.
Peak resident memory used = 125 Mbytes.


Global user options:
         psfversion = 1.4.0
            vabstol = 1e-06
            iabstol = 1e-12
               temp = 27
               gmin = 1e-12
             rforce = 1
           maxnotes = 5
           maxwarns = 5
             digits = 5
               cols = 80
             pivrel = 0.001
           sensfile = ../psf/sens.output
     checklimitdest = psf
               save = allpub
             reltol = 0.001
               tnom = 27
             scalem = 1
              scale = 1

Scoped user options:

Circuit inventory:
              nodes 21
              bsim4 32    
          capacitor 1     
            vsource 4     

Analysis and control statement inventory:
               info 7     
               tran 1     

Output statements:
             .probe 0     
           .measure 0     
               save 0     

Time for parsing: CPU = 1.999 ms, elapsed = 73.544 ms.
Time accumulated: CPU = 1.55976 s, elapsed = 1.76339 s.
Peak resident memory used = 126 Mbytes.

~~~~~~~~~~~~~~~~~~~~~~
Pre-Simulation Summary
~~~~~~~~~~~~~~~~~~~~~~
~~~~~~~~~~~~~~~~~~~~~~

************************************************
Transient Analysis `trans': time = (0 s -> 1 us)
************************************************
DC simulation time: CPU = 6.999 ms, elapsed = 6.6781 ms.

Opening the PSFXL file ./input.raw/trans.tran.tran ...
Important parameter values:
    start = 0 s
    outputstart = 0 s
    stop = 1 us
    step = 1 ns
    maxstep = 20 ns
    ic = all
    useprevic = no
    skipdc = no
    reltol = 1e-03
    abstol(V) = 1 uV
    abstol(I) = 1 pA
    temp = 27 C
    tnom = 27 C
    tempeffects = all
    errpreset = moderate
    method = traponly
    lteratio = 3.5
    relref = sigglobal
    cmin = 0 F
    gmin = 1 pS


Output and IC/nodeset summary:
                 save   1       (current)
                 save   21      (voltage)

......9......8

Notice from spectre at time = 200.003 ns during transient analysis `trans', during task `MDLControl'.
    Found trapezoidal ringing on node I13.NM1:int_s.
Notice from spectre at time = 200.004 ns during transient analysis `trans', during task `MDLControl'.
    Found trapezoidal ringing on node I13.NM1:int_s.
Notice from spectre at time = 200.005 ns during transient analysis `trans', during task `MDLControl'.
    Found trapezoidal ringing on node I13.NM1:int_s.
Notice from spectre at time = 200.008 ns during transient analysis `trans', during task `MDLControl'.
    Found trapezoidal ringing on node I13.NM1:int_s.
Notice from spectre at time = 200.012 ns during transient analysis `trans', during task `MDLControl'.
    Found trapezoidal ringing on node I13.NM1:int_s.
        Further occurrences of this notice will be suppressed.

......9......8......7......6......5......4......3......2......1......0
Number of accepted tran steps =             520

Notice from spectre during transient analysis `trans', during task `MDLControl'.
    Trapezoidal ringing is detected during tran analysis.
        Please use method=trap for better results and performance.


Maximum value achieved for any signal of each quantity: 
V: V(I13.mp25:int_d) = 359 mV
I: I(V0:p) = 1.014 mA
If your circuit contains signals of the same quantity that are vastly different in size (such as high voltage circuitry combined with low voltage control circuitry), you should consider specifying global option `bin_relref=yes'.

~~~~~~~~~~~~~~~~~~~~~~~~~~~~~~~~~
Post-Transient Simulation Summary
~~~~~~~~~~~~~~~~~~~~~~~~~~~~~~~~~
   -   To further speed up simulation, consider
          add ++aps on command line
~~~~~~~~~~~~~~~~~~~~~~~~~~~~~~~~~


During simulation, the CPU load for active processors is :
         0 (17.3 %)      1 (21.9 %)      2 (6.0 %)       3 (72.5 %)
        Total: 117.8%
Initial condition solution time: CPU = 6.999 ms, elapsed = 6.74486 ms.
Intrinsic tran analysis time:    CPU = 239.963 ms, elapsed = 279.104 ms.
Total time required for tran analysis `trans': CPU = 249.962 ms, elapsed = 289.172 ms.
Time accumulated: CPU = 1.81772 s, elapsed = 2.05989 s.
Peak resident memory used = 131 Mbytes.


Notice from spectre during task `MDLControl'.
    35 notices suppressed.
Warning from spectre.
    WARNING (SPECTRE-17101): The value 'psf' specified for the 'checklimitdest' option will no longer be supported in future releases. Use 'spectre -h' to see other recommended values for the 'checklimitdest' option.
    WARNING (SPECTRE-17101): The value 'psf' specified for the 'checklimitdest' option will no longer be supported in future releases. Use 'spectre -h' to see other recommended values for the 'checklimitdest' option.
    WARNING (SPECTRE-17101): The value 'psf' specified for the 'checklimitdest' option will no longer be supported in future releases. Use 'spectre -h' to see other recommended values for the 'checklimitdest' option.


Opening the PSF file ./input.raw/trans.optimize ...

**********************************************************
Transient Analysis `trans-000_trans': time = (0 s -> 1 us)
**********************************************************

Notice from spectre during IC analysis, during transient analysis `trans-000_trans', during task `MDLControl'.
    GminDC = 1 pS is large enough to noticeably affect the DC solution.
        dV(I13.NM4:int_s) = 142.384 uV
        Use the `gmin_check' option to eliminate or expand this report.

DC simulation time: CPU = 5.999 ms, elapsed = 6.75082 ms.

Opening the PSFXL file ./input.raw/trans-000_trans.tran.tran ...
Important parameter values:
    start = 0 s
    outputstart = 0 s
    stop = 1 us
    step = 1 ns
    maxstep = 20 ns
    ic = all
    useprevic = no
    skipdc = no
    reltol = 1e-03
    abstol(V) = 1 uV
    abstol(I) = 1 pA
    temp = 27 C
    tnom = 27 C
    tempeffects = all
    errpreset = moderate
    method = traponly
    lteratio = 3.5
    relref = sigglobal
    cmin = 0 F
    gmin = 1 pS


Output and IC/nodeset summary:
                 save   1       (current)
                 save   21      (voltage)

......9

Notice from spectre at time = 100.002 ns during transient analysis `trans-000_trans', during task `MDLControl'.
    Found trapezoidal ringing on node I13.NM1:int_s.
Notice from spectre at time = 100.003 ns during transient analysis `trans-000_trans', during task `MDLControl'.
    Found trapezoidal ringing on node I13.NM1:int_s.
Notice from spectre at time = 100.005 ns during transient analysis `trans-000_trans', during task `MDLControl'.
    Found trapezoidal ringing on node I13.NM1:int_s.
Notice from spectre at time = 100.007 ns during transient analysis `trans-000_trans', during task `MDLControl'.
    Found trapezoidal ringing on node I13.NM1:int_s.
Notice from spectre at time = 100.011 ns during transient analysis `trans-000_trans', during task `MDLControl'.
    Found trapezoidal ringing on node I13.NM1:int_s.
        Further occurrences of this notice will be suppressed.

......9......8......7......6......5......4......3......2......1......0
Number of accepted tran steps =             539

Notice from spectre during transient analysis `trans-000_trans', during task `MDLControl'.
    Trapezoidal ringing is detected during tran analysis.
        Please use method=trap for better results and performance.


Maximum value achieved for any signal of each quantity: 
V: V(I13.mp25:int_d) = 358.6 mV
I: I(V0:p) = 498.3 uA
If your circuit contains signals of the same quantity that are vastly different in size (such as high voltage circuitry combined with low voltage control circuitry), you should consider specifying global option `bin_relref=yes'.

~~~~~~~~~~~~~~~~~~~~~~~~~~~~~~~~~
Post-Transient Simulation Summary
~~~~~~~~~~~~~~~~~~~~~~~~~~~~~~~~~
   -   To further speed up simulation, consider
          add ++aps on command line
~~~~~~~~~~~~~~~~~~~~~~~~~~~~~~~~~


During simulation, the CPU load for active processors is :
         0 (29.0 %)      1 (20.7 %)      2 (6.0 %)       3 (58.5 %)
        Total: 114.2%
Initial condition solution time: CPU = 5.999 ms, elapsed = 6.79302 ms.
Intrinsic tran analysis time:    CPU = 245.963 ms, elapsed = 282.091 ms.
Total time required for tran analysis `trans-000_trans': CPU = 255.962 ms, elapsed = 291.872 ms.
Time accumulated: CPU = 2.17667 s, elapsed = 2.55041 s.
Peak resident memory used = 132 Mbytes.


Notice from spectre during task `MDLControl'.
    94 notices suppressed.
Warning from spectre.
    WARNING (SPECTRE-17101): The value 'psf' specified for the 'checklimitdest' option will no longer be supported in future releases. Use 'spectre -h' to see other recommended values for the 'checklimitdest' option.


**********************************************************
Transient Analysis `trans-000_trans': time = (0 s -> 1 us)
**********************************************************

Notice from spectre during IC analysis, during transient analysis `trans-000_trans', during task `MDLControl'.
    GminDC = 1 pS is large enough to noticeably affect the DC solution.
        dV(I13.NM4:int_s) = 142.384 uV
        Use the `gmin_check' option to eliminate or expand this report.

DC simulation time: CPU = 4 ms, elapsed = 3.53408 ms.

Opening the PSFXL file ./input.raw/trans-000_trans.tran.tran ...
Important parameter values:
    start = 0 s
    outputstart = 0 s
    stop = 1 us
    step = 1 ns
    maxstep = 20 ns
    ic = all
    useprevic = no
    skipdc = no
    reltol = 1e-03
    abstol(V) = 1 uV
    abstol(I) = 1 pA
    temp = 27 C
    tnom = 27 C
    tempeffects = all
    errpreset = moderate
    method = traponly
    lteratio = 3.5
    relref = sigglobal
    cmin = 0 F
    gmin = 1 pS


Output and IC/nodeset summary:
                 save   1       (current)
                 save   21      (voltage)

......9

Notice from spectre at time = 100.002 ns during transient analysis `trans-000_trans', during task `MDLControl'.
    Found trapezoidal ringing on node I13.NM1:int_s.
Notice from spectre at time = 100.003 ns during transient analysis `trans-000_trans', during task `MDLControl'.
    Found trapezoidal ringing on node I13.NM1:int_s.
Notice from spectre at time = 100.005 ns during transient analysis `trans-000_trans', during task `MDLControl'.
    Found trapezoidal ringing on node I13.NM1:int_s.
Notice from spectre at time = 100.007 ns during transient analysis `trans-000_trans', during task `MDLControl'.
    Found trapezoidal ringing on node I13.NM1:int_s.
Notice from spectre at time = 100.011 ns during transient analysis `trans-000_trans', during task `MDLControl'.
    Found trapezoidal ringing on node I13.NM1:int_s.
        Further occurrences of this notice will be suppressed.

......9......8......7......6......5......4......3......2......1......0
Number of accepted tran steps =             539

Notice from spectre during transient analysis `trans-000_trans', during task `MDLControl'.
    Trapezoidal ringing is detected during tran analysis.
        Please use method=trap for better results and performance.


Maximum value achieved for any signal of each quantity: 
V: V(I13.mp25:int_d) = 358.6 mV
I: I(V0:p) = 498.3 uA
If your circuit contains signals of the same quantity that are vastly different in size (such as high voltage circuitry combined with low voltage control circuitry), you should consider specifying global option `bin_relref=yes'.

~~~~~~~~~~~~~~~~~~~~~~~~~~~~~~~~~
Post-Transient Simulation Summary
~~~~~~~~~~~~~~~~~~~~~~~~~~~~~~~~~
   -   To further speed up simulation, consider
          add ++aps on command line
~~~~~~~~~~~~~~~~~~~~~~~~~~~~~~~~~


During simulation, the CPU load for active processors is :
         0 (36.6 %)      1 (18.6 %)      2 (7.1 %)       3 (52.0 %)
        Total: 114.3%
Initial condition solution time: CPU = 4 ms, elapsed = 3.57199 ms.
Intrinsic tran analysis time:    CPU = 252.961 ms, elapsed = 290.186 ms.
Total time required for tran analysis `trans-000_trans': CPU = 258.96 ms, elapsed = 296.323 ms.
Time accumulated: CPU = 2.47162 s, elapsed = 2.88371 s.
Peak resident memory used = 132 Mbytes.


Notice from spectre during task `MDLControl'.
    94 notices suppressed.
Warning from spectre.
    WARNING (SPECTRE-17101): The value 'psf' specified for the 'checklimitdest' option will no longer be supported in future releases. Use 'spectre -h' to see other recommended values for the 'checklimitdest' option.
    WARNING (SPECTRE-17101): The value 'psf' specified for the 'checklimitdest' option will no longer be supported in future releases. Use 'spectre -h' to see other recommended values for the 'checklimitdest' option.


**********************************************************
Transient Analysis `trans-000_trans': time = (0 s -> 1 us)
**********************************************************

Notice from spectre during IC analysis, during transient analysis `trans-000_trans', during task `MDLControl'.
    GminDC = 1 pS is large enough to noticeably affect the DC solution.
        dV(I13.NM4:int_s) = 142.381 uV
        Use the `gmin_check' option to eliminate or expand this report.

DC simulation time: CPU = 4 ms, elapsed = 3.34597 ms.

Opening the PSFXL file ./input.raw/trans-000_trans.tran.tran ...
Important parameter values:
    start = 0 s
    outputstart = 0 s
    stop = 1 us
    step = 1 ns
    maxstep = 20 ns
    ic = all
    useprevic = no
    skipdc = no
    reltol = 1e-03
    abstol(V) = 1 uV
    abstol(I) = 1 pA
    temp = 27 C
    tnom = 27 C
    tempeffects = all
    errpreset = moderate
    method = traponly
    lteratio = 3.5
    relref = sigglobal
    cmin = 0 F
    gmin = 1 pS


Output and IC/nodeset summary:
                 save   1       (current)
                 save   21      (voltage)

......9

Notice from spectre at time = 100.002 ns during transient analysis `trans-000_trans', during task `MDLControl'.
    Found trapezoidal ringing on node I13.NM1:int_s.
Notice from spectre at time = 100.003 ns during transient analysis `trans-000_trans', during task `MDLControl'.
    Found trapezoidal ringing on node I13.NM1:int_s.
Notice from spectre at time = 100.005 ns during transient analysis `trans-000_trans', during task `MDLControl'.
    Found trapezoidal ringing on node I13.NM1:int_s.
Notice from spectre at time = 100.007 ns during transient analysis `trans-000_trans', during task `MDLControl'.
    Found trapezoidal ringing on node I13.NM1:int_s.
Notice from spectre at time = 100.011 ns during transient analysis `trans-000_trans', during task `MDLControl'.
    Found trapezoidal ringing on node I13.NM1:int_s.
        Further occurrences of this notice will be suppressed.

......9......8......7......6......5......4......3......2......1......0
Number of accepted tran steps =             539

Notice from spectre during transient analysis `trans-000_trans', during task `MDLControl'.
    Trapezoidal ringing is detected during tran analysis.
        Please use method=trap for better results and performance.


Maximum value achieved for any signal of each quantity: 
V: V(I13.mp25:int_d) = 358.6 mV
I: I(V0:p) = 498.3 uA
If your circuit contains signals of the same quantity that are vastly different in size (such as high voltage circuitry combined with low voltage control circuitry), you should consider specifying global option `bin_relref=yes'.

~~~~~~~~~~~~~~~~~~~~~~~~~~~~~~~~~
Post-Transient Simulation Summary
~~~~~~~~~~~~~~~~~~~~~~~~~~~~~~~~~
   -   To further speed up simulation, consider
          add ++aps on command line
~~~~~~~~~~~~~~~~~~~~~~~~~~~~~~~~~


During simulation, the CPU load for active processors is :
         0 (42.9 %)      1 (18.1 %)      2 (7.3 %)       3 (46.4 %)
        Total: 114.6%
Initial condition solution time: CPU = 4 ms, elapsed = 3.38578 ms.
Intrinsic tran analysis time:    CPU = 250.961 ms, elapsed = 287.991 ms.
Total time required for tran analysis `trans-000_trans': CPU = 256.961 ms, elapsed = 293.936 ms.
Time accumulated: CPU = 2.79457 s, elapsed = 3.24729 s.
Peak resident memory used = 132 Mbytes.


Notice from spectre during task `MDLControl'.
    94 notices suppressed.
Warning from spectre.
    WARNING (SPECTRE-17101): The value 'psf' specified for the 'checklimitdest' option will no longer be supported in future releases. Use 'spectre -h' to see other recommended values for the 'checklimitdest' option.
    WARNING (SPECTRE-17101): The value 'psf' specified for the 'checklimitdest' option will no longer be supported in future releases. Use 'spectre -h' to see other recommended values for the 'checklimitdest' option.


**********************************************************
Transient Analysis `trans-000_trans': time = (0 s -> 1 us)
**********************************************************

Notice from spectre during IC analysis, during transient analysis `trans-000_trans', during task `MDLControl'.
    GminDC = 1 pS is large enough to noticeably affect the DC solution.
        dV(I13.NM4:int_s) = 142.384 uV
        Use the `gmin_check' option to eliminate or expand this report.

DC simulation time: CPU = 3.999 ms, elapsed = 3.34501 ms.

Opening the PSFXL file ./input.raw/trans-000_trans.tran.tran ...
Important parameter values:
    start = 0 s
    outputstart = 0 s
    stop = 1 us
    step = 1 ns
    maxstep = 20 ns
    ic = all
    useprevic = no
    skipdc = no
    reltol = 1e-03
    abstol(V) = 1 uV
    abstol(I) = 1 pA
    temp = 27 C
    tnom = 27 C
    tempeffects = all
    errpreset = moderate
    method = traponly
    lteratio = 3.5
    relref = sigglobal
    cmin = 0 F
    gmin = 1 pS


Output and IC/nodeset summary:
                 save   1       (current)
                 save   21      (voltage)

......9

Notice from spectre at time = 100.002 ns during transient analysis `trans-000_trans', during task `MDLControl'.
    Found trapezoidal ringing on node I13.NM1:int_s.
Notice from spectre at time = 100.003 ns during transient analysis `trans-000_trans', during task `MDLControl'.
    Found trapezoidal ringing on node I13.NM1:int_s.
Notice from spectre at time = 100.005 ns during transient analysis `trans-000_trans', during task `MDLControl'.
    Found trapezoidal ringing on node I13.NM1:int_s.
Notice from spectre at time = 100.007 ns during transient analysis `trans-000_trans', during task `MDLControl'.
    Found trapezoidal ringing on node I13.NM1:int_s.
Notice from spectre at time = 100.011 ns during transient analysis `trans-000_trans', during task `MDLControl'.
    Found trapezoidal ringing on node I13.NM1:int_s.
        Further occurrences of this notice will be suppressed.

......9......8......7......6......5......4......3......2......1......0
Number of accepted tran steps =             539

Notice from spectre during transient analysis `trans-000_trans', during task `MDLControl'.
    Trapezoidal ringing is detected during tran analysis.
        Please use method=trap for better results and performance.


Maximum value achieved for any signal of each quantity: 
V: V(I13.mp25:int_d) = 358.6 mV
I: I(V0:p) = 498.3 uA
If your circuit contains signals of the same quantity that are vastly different in size (such as high voltage circuitry combined with low voltage control circuitry), you should consider specifying global option `bin_relref=yes'.

~~~~~~~~~~~~~~~~~~~~~~~~~~~~~~~~~
Post-Transient Simulation Summary
~~~~~~~~~~~~~~~~~~~~~~~~~~~~~~~~~
   -   To further speed up simulation, consider
          add ++aps on command line
~~~~~~~~~~~~~~~~~~~~~~~~~~~~~~~~~


During simulation, the CPU load for active processors is :
         0 (41.5 %)      1 (24.2 %)      2 (7.9 %)       3 (42.8 %)
        Total: 116.4%
Initial condition solution time: CPU = 3.999 ms, elapsed = 3.38411 ms.
Intrinsic tran analysis time:    CPU = 249.961 ms, elapsed = 282.572 ms.
Total time required for tran analysis `trans-000_trans': CPU = 256.96 ms, elapsed = 288.565 ms.
Time accumulated: CPU = 3.12552 s, elapsed = 3.61139 s.
Peak resident memory used = 132 Mbytes.


Notice from spectre during task `MDLControl'.
    94 notices suppressed.
Warning from spectre.
    WARNING (SPECTRE-17101): The value 'psf' specified for the 'checklimitdest' option will no longer be supported in future releases. Use 'spectre -h' to see other recommended values for the 'checklimitdest' option.
    WARNING (SPECTRE-17101): The value 'psf' specified for the 'checklimitdest' option will no longer be supported in future releases. Use 'spectre -h' to see other recommended values for the 'checklimitdest' option.


**********************************************************
Transient Analysis `trans-000_trans': time = (0 s -> 1 us)
**********************************************************

Notice from spectre during IC analysis, during transient analysis `trans-000_trans', during task `MDLControl'.
    GminDC = 1 pS is large enough to noticeably affect the DC solution.
        dV(I13.NM4:int_s) = 142.389 uV
        Use the `gmin_check' option to eliminate or expand this report.

DC simulation time: CPU = 2.999 ms, elapsed = 3.45993 ms.

Opening the PSFXL file ./input.raw/trans-000_trans.tran.tran ...
Important parameter values:
    start = 0 s
    outputstart = 0 s
    stop = 1 us
    step = 1 ns
    maxstep = 20 ns
    ic = all
    useprevic = no
    skipdc = no
    reltol = 1e-03
    abstol(V) = 1 uV
    abstol(I) = 1 pA
    temp = 27 C
    tnom = 27 C
    tempeffects = all
    errpreset = moderate
    method = traponly
    lteratio = 3.5
    relref = sigglobal
    cmin = 0 F
    gmin = 1 pS


Output and IC/nodeset summary:
                 save   1       (current)
                 save   21      (voltage)

......9

Notice from spectre at time = 100.002 ns during transient analysis `trans-000_trans', during task `MDLControl'.
    Found trapezoidal ringing on node I13.NM1:int_s.
Notice from spectre at time = 100.003 ns during transient analysis `trans-000_trans', during task `MDLControl'.
    Found trapezoidal ringing on node I13.NM1:int_s.
Notice from spectre at time = 100.005 ns during transient analysis `trans-000_trans', during task `MDLControl'.
    Found trapezoidal ringing on node I13.NM1:int_s.
Notice from spectre at time = 100.007 ns during transient analysis `trans-000_trans', during task `MDLControl'.
    Found trapezoidal ringing on node I13.NM1:int_s.
Notice from spectre at time = 100.011 ns during transient analysis `trans-000_trans', during task `MDLControl'.
    Found trapezoidal ringing on node I13.NM1:int_s.
        Further occurrences of this notice will be suppressed.

......9......8......7......6......5......4......3......2......1......0
Number of accepted tran steps =             539

Notice from spectre during transient analysis `trans-000_trans', during task `MDLControl'.
    Trapezoidal ringing is detected during tran analysis.
        Please use method=trap for better results and performance.


Maximum value achieved for any signal of each quantity: 
V: V(I13.mp25:int_d) = 358.6 mV
I: I(V0:p) = 498.3 uA
If your circuit contains signals of the same quantity that are vastly different in size (such as high voltage circuitry combined with low voltage control circuitry), you should consider specifying global option `bin_relref=yes'.

~~~~~~~~~~~~~~~~~~~~~~~~~~~~~~~~~
Post-Transient Simulation Summary
~~~~~~~~~~~~~~~~~~~~~~~~~~~~~~~~~
   -   To further speed up simulation, consider
          add ++aps on command line
~~~~~~~~~~~~~~~~~~~~~~~~~~~~~~~~~


During simulation, the CPU load for active processors is :
         0 (45.4 %)      1 (24.5 %)      2 (7.7 %)       3 (39.3 %)
        Total: 116.9%
Initial condition solution time: CPU = 2.999 ms, elapsed = 3.50404 ms.
Intrinsic tran analysis time:    CPU = 252.962 ms, elapsed = 290.62 ms.
Total time required for tran analysis `trans-000_trans': CPU = 258.961 ms, elapsed = 296.91 ms.
Time accumulated: CPU = 3.45148 s, elapsed = 3.97586 s.
Peak resident memory used = 132 Mbytes.


Notice from spectre during task `MDLControl'.
    94 notices suppressed.
Warning from spectre.
    WARNING (SPECTRE-17101): The value 'psf' specified for the 'checklimitdest' option will no longer be supported in future releases. Use 'spectre -h' to see other recommended values for the 'checklimitdest' option.
    WARNING (SPECTRE-17101): The value 'psf' specified for the 'checklimitdest' option will no longer be supported in future releases. Use 'spectre -h' to see other recommended values for the 'checklimitdest' option.
    WARNING (SPECTRE-17101): The value 'psf' specified for the 'checklimitdest' option will no longer be supported in future releases. Use 'spectre -h' to see other recommended values for the 'checklimitdest' option.


**********************************************************
Transient Analysis `trans-000_trans': time = (0 s -> 1 us)
**********************************************************

Notice from spectre during IC analysis, during transient analysis `trans-000_trans', during task `MDLControl'.
    GminDC = 1 pS is large enough to noticeably affect the DC solution.
        dV(I13.PM8:int_d) = 590.371 uV
        Use the `gmin_check' option to eliminate or expand this report.

DC simulation time: CPU = 4 ms, elapsed = 4.04 ms.

Opening the PSFXL file ./input.raw/trans-000_trans.tran.tran ...
Important parameter values:
    start = 0 s
    outputstart = 0 s
    stop = 1 us
    step = 1 ns
    maxstep = 20 ns
    ic = all
    useprevic = no
    skipdc = no
    reltol = 1e-03
    abstol(V) = 1 uV
    abstol(I) = 1 pA
    temp = 27 C
    tnom = 27 C
    tempeffects = all
    errpreset = moderate
    method = traponly
    lteratio = 3.5
    relref = sigglobal
    cmin = 0 F
    gmin = 1 pS


Output and IC/nodeset summary:
                 save   1       (current)
                 save   21      (voltage)

......9

Notice from spectre at time = 100.005 ns during transient analysis `trans-000_trans', during task `MDLControl'.
    Found trapezoidal ringing on node I13.NM1:int_s.
Notice from spectre at time = 100.008 ns during transient analysis `trans-000_trans', during task `MDLControl'.
    Found trapezoidal ringing on node I13.NM1:int_s.
Notice from spectre at time = 100.016 ns during transient analysis `trans-000_trans', during task `MDLControl'.
    Found trapezoidal ringing on node I13.NM1:int_s.
Notice from spectre at time = 100.031 ns during transient analysis `trans-000_trans', during task `MDLControl'.
    Found trapezoidal ringing on node I13.NM1:int_s.

......9......8

Notice from spectre at time = 200.003 ns during transient analysis `trans-000_trans', during task `MDLControl'.
    Found trapezoidal ringing on node I13.NM6:int_s.
        Further occurrences of this notice will be suppressed.

......9......8......7......6......5......4......3......2......1......0
Number of accepted tran steps =             526

Notice from spectre during transient analysis `trans-000_trans', during task `MDLControl'.
    Trapezoidal ringing is detected during tran analysis.
        Please use method=trap for better results and performance.


Maximum value achieved for any signal of each quantity: 
V: V(I13.PM2:int_s) = 348.9 mV
I: I(V0:p) = 43.51 uA
If your circuit contains signals of the same quantity that are vastly different in size (such as high voltage circuitry combined with low voltage control circuitry), you should consider specifying global option `bin_relref=yes'.

~~~~~~~~~~~~~~~~~~~~~~~~~~~~~~~~~
Post-Transient Simulation Summary
~~~~~~~~~~~~~~~~~~~~~~~~~~~~~~~~~
   -   To further speed up simulation, consider
          add ++aps on command line
~~~~~~~~~~~~~~~~~~~~~~~~~~~~~~~~~


During simulation, the CPU load for active processors is :
         0 (44.3 %)      1 (28.5 %)      2 (8.4 %)       3 (35.7 %)
        Total: 116.9%
Initial condition solution time: CPU = 4 ms, elapsed = 4.07791 ms.
Intrinsic tran analysis time:    CPU = 259.959 ms, elapsed = 284.909 ms.
Total time required for tran analysis `trans-000_trans': CPU = 265.959 ms, elapsed = 291.659 ms.
Time accumulated: CPU = 3.81842 s, elapsed = 4.37079 s.
Peak resident memory used = 132 Mbytes.


Notice from spectre during task `MDLControl'.
    39 notices suppressed.
Warning from spectre.
    WARNING (SPECTRE-17101): The value 'psf' specified for the 'checklimitdest' option will no longer be supported in future releases. Use 'spectre -h' to see other recommended values for the 'checklimitdest' option.


**********************************************************
Transient Analysis `trans-000_trans': time = (0 s -> 1 us)
**********************************************************

Notice from spectre during IC analysis, during transient analysis `trans-000_trans', during task `MDLControl'.
    GminDC = 1 pS is large enough to noticeably affect the DC solution.
        dV(I13.PM8:int_d) = 590.355 uV
        Use the `gmin_check' option to eliminate or expand this report.

DC simulation time: CPU = 3.999 ms, elapsed = 3.87597 ms.

Opening the PSFXL file ./input.raw/trans-000_trans.tran.tran ...
Important parameter values:
    start = 0 s
    outputstart = 0 s
    stop = 1 us
    step = 1 ns
    maxstep = 20 ns
    ic = all
    useprevic = no
    skipdc = no
    reltol = 1e-03
    abstol(V) = 1 uV
    abstol(I) = 1 pA
    temp = 27 C
    tnom = 27 C
    tempeffects = all
    errpreset = moderate
    method = traponly
    lteratio = 3.5
    relref = sigglobal
    cmin = 0 F
    gmin = 1 pS


Output and IC/nodeset summary:
                 save   1       (current)
                 save   21      (voltage)

......9

Notice from spectre at time = 100.005 ns during transient analysis `trans-000_trans', during task `MDLControl'.
    Found trapezoidal ringing on node I13.NM1:int_s.
Notice from spectre at time = 100.008 ns during transient analysis `trans-000_trans', during task `MDLControl'.
    Found trapezoidal ringing on node I13.NM1:int_s.
Notice from spectre at time = 100.016 ns during transient analysis `trans-000_trans', during task `MDLControl'.
    Found trapezoidal ringing on node I13.NM1:int_s.
Notice from spectre at time = 100.031 ns during transient analysis `trans-000_trans', during task `MDLControl'.
    Found trapezoidal ringing on node I13.NM1:int_s.

......9......8

Notice from spectre at time = 200.003 ns during transient analysis `trans-000_trans', during task `MDLControl'.
    Found trapezoidal ringing on node I13.NM6:int_s.
        Further occurrences of this notice will be suppressed.

......9......8......7......6......5......4......3......2......1......0
Number of accepted tran steps =             526

Notice from spectre during transient analysis `trans-000_trans', during task `MDLControl'.
    Trapezoidal ringing is detected during tran analysis.
        Please use method=trap for better results and performance.


Maximum value achieved for any signal of each quantity: 
V: V(I13.PM2:int_s) = 348.9 mV
I: I(V0:p) = 43.51 uA
If your circuit contains signals of the same quantity that are vastly different in size (such as high voltage circuitry combined with low voltage control circuitry), you should consider specifying global option `bin_relref=yes'.

~~~~~~~~~~~~~~~~~~~~~~~~~~~~~~~~~
Post-Transient Simulation Summary
~~~~~~~~~~~~~~~~~~~~~~~~~~~~~~~~~
   -   To further speed up simulation, consider
          add ++aps on command line
~~~~~~~~~~~~~~~~~~~~~~~~~~~~~~~~~


During simulation, the CPU load for active processors is :
         0 (42.3 %)      1 (33.2 %)      2 (8.7 %)       3 (34.3 %)
        Total: 118.5%
Initial condition solution time: CPU = 3.999 ms, elapsed = 3.91412 ms.
Intrinsic tran analysis time:    CPU = 262.96 ms, elapsed = 287.252 ms.
Total time required for tran analysis `trans-000_trans': CPU = 269.959 ms, elapsed = 293.739 ms.
Time accumulated: CPU = 4.12137 s, elapsed = 4.69925 s.
Peak resident memory used = 132 Mbytes.


Notice from spectre during task `MDLControl'.
    39 notices suppressed.
Warning from spectre.
    WARNING (SPECTRE-17101): The value 'psf' specified for the 'checklimitdest' option will no longer be supported in future releases. Use 'spectre -h' to see other recommended values for the 'checklimitdest' option.
    WARNING (SPECTRE-17101): The value 'psf' specified for the 'checklimitdest' option will no longer be supported in future releases. Use 'spectre -h' to see other recommended values for the 'checklimitdest' option.


**********************************************************
Transient Analysis `trans-000_trans': time = (0 s -> 1 us)
**********************************************************

Notice from spectre during IC analysis, during transient analysis `trans-000_trans', during task `MDLControl'.
    GminDC = 1 pS is large enough to noticeably affect the DC solution.
        dV(I13.PM8:int_d) = 590.371 uV
        Use the `gmin_check' option to eliminate or expand this report.

DC simulation time: CPU = 4.999 ms, elapsed = 4.46796 ms.

Opening the PSFXL file ./input.raw/trans-000_trans.tran.tran ...
Important parameter values:
    start = 0 s
    outputstart = 0 s
    stop = 1 us
    step = 1 ns
    maxstep = 20 ns
    ic = all
    useprevic = no
    skipdc = no
    reltol = 1e-03
    abstol(V) = 1 uV
    abstol(I) = 1 pA
    temp = 27 C
    tnom = 27 C
    tempeffects = all
    errpreset = moderate
    method = traponly
    lteratio = 3.5
    relref = sigglobal
    cmin = 0 F
    gmin = 1 pS


Output and IC/nodeset summary:
                 save   1       (current)
                 save   21      (voltage)

......9

Notice from spectre at time = 100.005 ns during transient analysis `trans-000_trans', during task `MDLControl'.
    Found trapezoidal ringing on node I13.NM1:int_s.
Notice from spectre at time = 100.008 ns during transient analysis `trans-000_trans', during task `MDLControl'.
    Found trapezoidal ringing on node I13.NM1:int_s.
Notice from spectre at time = 100.016 ns during transient analysis `trans-000_trans', during task `MDLControl'.
    Found trapezoidal ringing on node I13.NM1:int_s.
Notice from spectre at time = 100.031 ns during transient analysis `trans-000_trans', during task `MDLControl'.
    Found trapezoidal ringing on node I13.NM1:int_s.

......9......8

Notice from spectre at time = 200.003 ns during transient analysis `trans-000_trans', during task `MDLControl'.
    Found trapezoidal ringing on node I13.NM6:int_s.
        Further occurrences of this notice will be suppressed.

......9......8......7......6......5......4......3......2......1......0
Number of accepted tran steps =             526

Notice from spectre during transient analysis `trans-000_trans', during task `MDLControl'.
    Trapezoidal ringing is detected during tran analysis.
        Please use method=trap for better results and performance.


Maximum value achieved for any signal of each quantity: 
V: V(I13.PM2:int_s) = 348.9 mV
I: I(V0:p) = 43.51 uA
If your circuit contains signals of the same quantity that are vastly different in size (such as high voltage circuitry combined with low voltage control circuitry), you should consider specifying global option `bin_relref=yes'.

~~~~~~~~~~~~~~~~~~~~~~~~~~~~~~~~~
Post-Transient Simulation Summary
~~~~~~~~~~~~~~~~~~~~~~~~~~~~~~~~~
   -   To further speed up simulation, consider
          add ++aps on command line
~~~~~~~~~~~~~~~~~~~~~~~~~~~~~~~~~


During simulation, the CPU load for active processors is :
         0 (40.8 %)      1 (37.5 %)      2 (8.4 %)       3 (32.1 %)
        Total: 118.8%
Initial condition solution time: CPU = 4.999 ms, elapsed = 4.52185 ms.
Intrinsic tran analysis time:    CPU = 261.959 ms, elapsed = 282.997 ms.
Total time required for tran analysis `trans-000_trans': CPU = 268.958 ms, elapsed = 290.703 ms.
Time accumulated: CPU = 4.45732 s, elapsed = 5.05685 s.
Peak resident memory used = 132 Mbytes.


Notice from spectre during task `MDLControl'.
    39 notices suppressed.
Warning from spectre.
    WARNING (SPECTRE-17101): The value 'psf' specified for the 'checklimitdest' option will no longer be supported in future releases. Use 'spectre -h' to see other recommended values for the 'checklimitdest' option.
    WARNING (SPECTRE-17101): The value 'psf' specified for the 'checklimitdest' option will no longer be supported in future releases. Use 'spectre -h' to see other recommended values for the 'checklimitdest' option.


**********************************************************
Transient Analysis `trans-000_trans': time = (0 s -> 1 us)
**********************************************************

Notice from spectre during IC analysis, during transient analysis `trans-000_trans', during task `MDLControl'.
    GminDC = 1 pS is large enough to noticeably affect the DC solution.
        dV(I13.PM8:int_d) = 590.433 uV
        Use the `gmin_check' option to eliminate or expand this report.

DC simulation time: CPU = 3.999 ms, elapsed = 3.99899 ms.

Opening the PSFXL file ./input.raw/trans-000_trans.tran.tran ...
Important parameter values:
    start = 0 s
    outputstart = 0 s
    stop = 1 us
    step = 1 ns
    maxstep = 20 ns
    ic = all
    useprevic = no
    skipdc = no
    reltol = 1e-03
    abstol(V) = 1 uV
    abstol(I) = 1 pA
    temp = 27 C
    tnom = 27 C
    tempeffects = all
    errpreset = moderate
    method = traponly
    lteratio = 3.5
    relref = sigglobal
    cmin = 0 F
    gmin = 1 pS


Output and IC/nodeset summary:
                 save   1       (current)
                 save   21      (voltage)

......9

Notice from spectre at time = 100.005 ns during transient analysis `trans-000_trans', during task `MDLControl'.
    Found trapezoidal ringing on node I13.NM1:int_s.
Notice from spectre at time = 100.008 ns during transient analysis `trans-000_trans', during task `MDLControl'.
    Found trapezoidal ringing on node I13.NM1:int_s.
Notice from spectre at time = 100.016 ns during transient analysis `trans-000_trans', during task `MDLControl'.
    Found trapezoidal ringing on node I13.NM1:int_s.
Notice from spectre at time = 100.031 ns during transient analysis `trans-000_trans', during task `MDLControl'.
    Found trapezoidal ringing on node I13.NM1:int_s.

......9......8

Notice from spectre at time = 200.003 ns during transient analysis `trans-000_trans', during task `MDLControl'.
    Found trapezoidal ringing on node I13.NM6:int_s.
        Further occurrences of this notice will be suppressed.

......9......8......7......6......5......4......3......2......1......0
Number of accepted tran steps =             526

Notice from spectre during transient analysis `trans-000_trans', during task `MDLControl'.
    Trapezoidal ringing is detected during tran analysis.
        Please use method=trap for better results and performance.


Maximum value achieved for any signal of each quantity: 
V: V(I13.PM2:int_s) = 348.9 mV
I: I(V0:p) = 43.51 uA
If your circuit contains signals of the same quantity that are vastly different in size (such as high voltage circuitry combined with low voltage control circuitry), you should consider specifying global option `bin_relref=yes'.

~~~~~~~~~~~~~~~~~~~~~~~~~~~~~~~~~
Post-Transient Simulation Summary
~~~~~~~~~~~~~~~~~~~~~~~~~~~~~~~~~
   -   To further speed up simulation, consider
          add ++aps on command line
~~~~~~~~~~~~~~~~~~~~~~~~~~~~~~~~~


During simulation, the CPU load for active processors is :
         0 (39.0 %)      1 (36.6 %)      2 (12.9 %)      3 (30.1 %)
        Total: 118.6%
Initial condition solution time: CPU = 3.999 ms, elapsed = 4.05097 ms.
Intrinsic tran analysis time:    CPU = 253.962 ms, elapsed = 293.931 ms.
Total time required for tran analysis `trans-000_trans': CPU = 261.96 ms, elapsed = 300.73 ms.
Time accumulated: CPU = 4.78727 s, elapsed = 5.4256 s.
Peak resident memory used = 132 Mbytes.


Notice from spectre during task `MDLControl'.
    39 notices suppressed.
Warning from spectre.
    WARNING (SPECTRE-17101): The value 'psf' specified for the 'checklimitdest' option will no longer be supported in future releases. Use 'spectre -h' to see other recommended values for the 'checklimitdest' option.
    WARNING (SPECTRE-17101): The value 'psf' specified for the 'checklimitdest' option will no longer be supported in future releases. Use 'spectre -h' to see other recommended values for the 'checklimitdest' option.


**********************************************************
Transient Analysis `trans-000_trans': time = (0 s -> 1 us)
**********************************************************

Notice from spectre during IC analysis, during transient analysis `trans-000_trans', during task `MDLControl'.
    GminDC = 1 pS is large enough to noticeably affect the DC solution.
        dV(I13.PM8:int_d) = 590.371 uV
        Use the `gmin_check' option to eliminate or expand this report.

DC simulation time: CPU = 4 ms, elapsed = 3.84116 ms.

Opening the PSFXL file ./input.raw/trans-000_trans.tran.tran ...
Important parameter values:
    start = 0 s
    outputstart = 0 s
    stop = 1 us
    step = 1 ns
    maxstep = 20 ns
    ic = all
    useprevic = no
    skipdc = no
    reltol = 1e-03
    abstol(V) = 1 uV
    abstol(I) = 1 pA
    temp = 27 C
    tnom = 27 C
    tempeffects = all
    errpreset = moderate
    method = traponly
    lteratio = 3.5
    relref = sigglobal
    cmin = 0 F
    gmin = 1 pS


Output and IC/nodeset summary:
                 save   1       (current)
                 save   21      (voltage)

......9

Notice from spectre at time = 100.005 ns during transient analysis `trans-000_trans', during task `MDLControl'.
    Found trapezoidal ringing on node I13.NM1:int_s.
Notice from spectre at time = 100.008 ns during transient analysis `trans-000_trans', during task `MDLControl'.
    Found trapezoidal ringing on node I13.NM1:int_s.
Notice from spectre at time = 100.016 ns during transient analysis `trans-000_trans', during task `MDLControl'.
    Found trapezoidal ringing on node I13.NM1:int_s.
Notice from spectre at time = 100.031 ns during transient analysis `trans-000_trans', during task `MDLControl'.
    Found trapezoidal ringing on node I13.NM1:int_s.

......9......8

Notice from spectre at time = 200.003 ns during transient analysis `trans-000_trans', during task `MDLControl'.
    Found trapezoidal ringing on node I13.NM6:int_s.
        Further occurrences of this notice will be suppressed.

......9......8......7......6......5......4......3......2......1......0
Number of accepted tran steps =             526

Notice from spectre during transient analysis `trans-000_trans', during task `MDLControl'.
    Trapezoidal ringing is detected during tran analysis.
        Please use method=trap for better results and performance.


Maximum value achieved for any signal of each quantity: 
V: V(I13.PM2:int_s) = 348.9 mV
I: I(V0:p) = 43.51 uA
If your circuit contains signals of the same quantity that are vastly different in size (such as high voltage circuitry combined with low voltage control circuitry), you should consider specifying global option `bin_relref=yes'.

~~~~~~~~~~~~~~~~~~~~~~~~~~~~~~~~~
Post-Transient Simulation Summary
~~~~~~~~~~~~~~~~~~~~~~~~~~~~~~~~~
   -   To further speed up simulation, consider
          add ++aps on command line
~~~~~~~~~~~~~~~~~~~~~~~~~~~~~~~~~


During simulation, the CPU load for active processors is :
         0 (37.7 %)      1 (38.8 %)      2 (13.7 %)      3 (29.2 %)
        Total: 119.5%
Initial condition solution time: CPU = 4 ms, elapsed = 3.87812 ms.
Intrinsic tran analysis time:    CPU = 256.961 ms, elapsed = 290.535 ms.
Total time required for tran analysis `trans-000_trans': CPU = 262.961 ms, elapsed = 296.96 ms.
Time accumulated: CPU = 5.11522 s, elapsed = 5.78899 s.
Peak resident memory used = 132 Mbytes.


Notice from spectre during task `MDLControl'.
    39 notices suppressed.
Warning from spectre.
    WARNING (SPECTRE-17101): The value 'psf' specified for the 'checklimitdest' option will no longer be supported in future releases. Use 'spectre -h' to see other recommended values for the 'checklimitdest' option.
    WARNING (SPECTRE-17101): The value 'psf' specified for the 'checklimitdest' option will no longer be supported in future releases. Use 'spectre -h' to see other recommended values for the 'checklimitdest' option.


**********************************************************
Transient Analysis `trans-000_trans': time = (0 s -> 1 us)
**********************************************************

Notice from spectre during IC analysis, during transient analysis `trans-000_trans', during task `MDLControl'.
    GminDC = 1 pS is large enough to noticeably affect the DC solution.
        dV(I13.NM0:int_d) = -352.867 uV
        Use the `gmin_check' option to eliminate or expand this report.

DC simulation time: CPU = 3.999 ms, elapsed = 3.97992 ms.

Opening the PSFXL file ./input.raw/trans-000_trans.tran.tran ...
Important parameter values:
    start = 0 s
    outputstart = 0 s
    stop = 1 us
    step = 1 ns
    maxstep = 20 ns
    ic = all
    useprevic = no
    skipdc = no
    reltol = 1e-03
    abstol(V) = 1 uV
    abstol(I) = 1 pA
    temp = 27 C
    tnom = 27 C
    tempeffects = all
    errpreset = moderate
    method = traponly
    lteratio = 3.5
    relref = sigglobal
    cmin = 0 F
    gmin = 1 pS


Output and IC/nodeset summary:
                 save   1       (current)
                 save   21      (voltage)

......9......8

Notice from spectre at time = 200.003 ns during transient analysis `trans-000_trans', during task `MDLControl'.
    Found trapezoidal ringing on node I13.NM6:int_s.
Notice from spectre at time = 200.004 ns during transient analysis `trans-000_trans', during task `MDLControl'.
    Found trapezoidal ringing on node I13.NM6:int_s.
Notice from spectre at time = 200.006 ns during transient analysis `trans-000_trans', during task `MDLControl'.
    Found trapezoidal ringing on node I13.NM6:int_s.
Notice from spectre at time = 200.01 ns during transient analysis `trans-000_trans', during task `MDLControl'.
    Found trapezoidal ringing on node I13.NM6:int_s.
Notice from spectre at time = 200.015 ns during transient analysis `trans-000_trans', during task `MDLControl'.
    Found trapezoidal ringing on node I13.NM6:int_s.
        Further occurrences of this notice will be suppressed.

......9......8......7......6......5......4......3......2......1......0
Number of accepted tran steps =             507

Notice from spectre during transient analysis `trans-000_trans', during task `MDLControl'.
    Trapezoidal ringing is detected during tran analysis.
        Please use method=trap for better results and performance.


Maximum value achieved for any signal of each quantity: 
V: V(I13.PM2:int_s) = 356 mV
I: I(V0:p) = 127.1 uA
If your circuit contains signals of the same quantity that are vastly different in size (such as high voltage circuitry combined with low voltage control circuitry), you should consider specifying global option `bin_relref=yes'.

~~~~~~~~~~~~~~~~~~~~~~~~~~~~~~~~~
Post-Transient Simulation Summary
~~~~~~~~~~~~~~~~~~~~~~~~~~~~~~~~~
   -   To further speed up simulation, consider
          add ++aps on command line
~~~~~~~~~~~~~~~~~~~~~~~~~~~~~~~~~


During simulation, the CPU load for active processors is :
         0 (40.3 %)      1 (38.3 %)      2 (13.5 %)      3 (27.8 %)
        Total: 119.9%
Initial condition solution time: CPU = 3.999 ms, elapsed = 4.02403 ms.
Intrinsic tran analysis time:    CPU = 236.964 ms, elapsed = 267.681 ms.
Total time required for tran analysis `trans-000_trans': CPU = 242.962 ms, elapsed = 274.609 ms.
Time accumulated: CPU = 5.42617 s, elapsed = 6.13281 s.
Peak resident memory used = 132 Mbytes.


Notice from spectre during task `MDLControl'.
    17 notices suppressed.
Warning from spectre.
    WARNING (SPECTRE-17101): The value 'psf' specified for the 'checklimitdest' option will no longer be supported in future releases. Use 'spectre -h' to see other recommended values for the 'checklimitdest' option.


**********************************************************
Transient Analysis `trans-000_trans': time = (0 s -> 1 us)
**********************************************************

Notice from spectre during IC analysis, during transient analysis `trans-000_trans', during task `MDLControl'.
    GminDC = 1 pS is large enough to noticeably affect the DC solution.
        dV(I13.NM0:int_d) = -352.867 uV
        Use the `gmin_check' option to eliminate or expand this report.

DC simulation time: CPU = 4 ms, elapsed = 3.613 ms.

Opening the PSFXL file ./input.raw/trans-000_trans.tran.tran ...
Important parameter values:
    start = 0 s
    outputstart = 0 s
    stop = 1 us
    step = 1 ns
    maxstep = 20 ns
    ic = all
    useprevic = no
    skipdc = no
    reltol = 1e-03
    abstol(V) = 1 uV
    abstol(I) = 1 pA
    temp = 27 C
    tnom = 27 C
    tempeffects = all
    errpreset = moderate
    method = traponly
    lteratio = 3.5
    relref = sigglobal
    cmin = 0 F
    gmin = 1 pS


Output and IC/nodeset summary:
                 save   1       (current)
                 save   21      (voltage)

......9......8

Notice from spectre at time = 200.003 ns during transient analysis `trans-000_trans', during task `MDLControl'.
    Found trapezoidal ringing on node I13.NM6:int_s.
Notice from spectre at time = 200.004 ns during transient analysis `trans-000_trans', during task `MDLControl'.
    Found trapezoidal ringing on node I13.NM6:int_s.
Notice from spectre at time = 200.006 ns during transient analysis `trans-000_trans', during task `MDLControl'.
    Found trapezoidal ringing on node I13.NM6:int_s.
Notice from spectre at time = 200.01 ns during transient analysis `trans-000_trans', during task `MDLControl'.
    Found trapezoidal ringing on node I13.NM6:int_s.
Notice from spectre at time = 200.015 ns during transient analysis `trans-000_trans', during task `MDLControl'.
    Found trapezoidal ringing on node I13.NM6:int_s.
        Further occurrences of this notice will be suppressed.

......9......8......7......6......5......4......3......2......1......0
Number of accepted tran steps =             507

Notice from spectre during transient analysis `trans-000_trans', during task `MDLControl'.
    Trapezoidal ringing is detected during tran analysis.
        Please use method=trap for better results and performance.


Maximum value achieved for any signal of each quantity: 
V: V(I13.PM2:int_s) = 356 mV
I: I(V0:p) = 127.1 uA
If your circuit contains signals of the same quantity that are vastly different in size (such as high voltage circuitry combined with low voltage control circuitry), you should consider specifying global option `bin_relref=yes'.

~~~~~~~~~~~~~~~~~~~~~~~~~~~~~~~~~
Post-Transient Simulation Summary
~~~~~~~~~~~~~~~~~~~~~~~~~~~~~~~~~
   -   To further speed up simulation, consider
          add ++aps on command line
~~~~~~~~~~~~~~~~~~~~~~~~~~~~~~~~~


During simulation, the CPU load for active processors is :
         0 (42.9 %)      1 (37.3 %)      2 (13.2 %)      3 (26.5 %)
        Total: 119.9%
Initial condition solution time: CPU = 4 ms, elapsed = 3.65305 ms.
Intrinsic tran analysis time:    CPU = 237.963 ms, elapsed = 275.502 ms.
Total time required for tran analysis `trans-000_trans': CPU = 244.962 ms, elapsed = 281.96 ms.
Time accumulated: CPU = 5.70713 s, elapsed = 6.45199 s.
Peak resident memory used = 132 Mbytes.


Notice from spectre during task `MDLControl'.
    17 notices suppressed.
Warning from spectre.
    WARNING (SPECTRE-17101): The value 'psf' specified for the 'checklimitdest' option will no longer be supported in future releases. Use 'spectre -h' to see other recommended values for the 'checklimitdest' option.
    WARNING (SPECTRE-17101): The value 'psf' specified for the 'checklimitdest' option will no longer be supported in future releases. Use 'spectre -h' to see other recommended values for the 'checklimitdest' option.


**********************************************************
Transient Analysis `trans-000_trans': time = (0 s -> 1 us)
**********************************************************

Notice from spectre during IC analysis, during transient analysis `trans-000_trans', during task `MDLControl'.
    GminDC = 1 pS is large enough to noticeably affect the DC solution.
        dV(I13.NM0:int_d) = -352.864 uV
        Use the `gmin_check' option to eliminate or expand this report.

DC simulation time: CPU = 3 ms, elapsed = 3.5851 ms.

Opening the PSFXL file ./input.raw/trans-000_trans.tran.tran ...
Important parameter values:
    start = 0 s
    outputstart = 0 s
    stop = 1 us
    step = 1 ns
    maxstep = 20 ns
    ic = all
    useprevic = no
    skipdc = no
    reltol = 1e-03
    abstol(V) = 1 uV
    abstol(I) = 1 pA
    temp = 27 C
    tnom = 27 C
    tempeffects = all
    errpreset = moderate
    method = traponly
    lteratio = 3.5
    relref = sigglobal
    cmin = 0 F
    gmin = 1 pS


Output and IC/nodeset summary:
                 save   1       (current)
                 save   21      (voltage)

......9......8

Notice from spectre at time = 200.003 ns during transient analysis `trans-000_trans', during task `MDLControl'.
    Found trapezoidal ringing on node I13.NM6:int_s.
Notice from spectre at time = 200.004 ns during transient analysis `trans-000_trans', during task `MDLControl'.
    Found trapezoidal ringing on node I13.NM6:int_s.
Notice from spectre at time = 200.006 ns during transient analysis `trans-000_trans', during task `MDLControl'.
    Found trapezoidal ringing on node I13.NM6:int_s.
Notice from spectre at time = 200.01 ns during transient analysis `trans-000_trans', during task `MDLControl'.
    Found trapezoidal ringing on node I13.NM6:int_s.
Notice from spectre at time = 200.015 ns during transient analysis `trans-000_trans', during task `MDLControl'.
    Found trapezoidal ringing on node I13.NM6:int_s.
        Further occurrences of this notice will be suppressed.

......9......8......7......6......5......4......3......2......1......0
Number of accepted tran steps =             507

Notice from spectre during transient analysis `trans-000_trans', during task `MDLControl'.
    Trapezoidal ringing is detected during tran analysis.
        Please use method=trap for better results and performance.


Maximum value achieved for any signal of each quantity: 
V: V(I13.PM2:int_s) = 356 mV
I: I(V0:p) = 127.1 uA
If your circuit contains signals of the same quantity that are vastly different in size (such as high voltage circuitry combined with low voltage control circuitry), you should consider specifying global option `bin_relref=yes'.

~~~~~~~~~~~~~~~~~~~~~~~~~~~~~~~~~
Post-Transient Simulation Summary
~~~~~~~~~~~~~~~~~~~~~~~~~~~~~~~~~
   -   To further speed up simulation, consider
          add ++aps on command line
~~~~~~~~~~~~~~~~~~~~~~~~~~~~~~~~~


During simulation, the CPU load for active processors is :
         0 (42.5 %)      1 (35.8 %)      2 (12.8 %)      3 (29.2 %)
        Total: 120.2%
Initial condition solution time: CPU = 3 ms, elapsed = 3.62206 ms.
Intrinsic tran analysis time:    CPU = 237.964 ms, elapsed = 274.739 ms.
Total time required for tran analysis `trans-000_trans': CPU = 243.963 ms, elapsed = 281.034 ms.
Time accumulated: CPU = 6.01908 s, elapsed = 6.80186 s.
Peak resident memory used = 132 Mbytes.


Notice from spectre during task `MDLControl'.
    17 notices suppressed.
Warning from spectre.
    WARNING (SPECTRE-17101): The value 'psf' specified for the 'checklimitdest' option will no longer be supported in future releases. Use 'spectre -h' to see other recommended values for the 'checklimitdest' option.
    WARNING (SPECTRE-17101): The value 'psf' specified for the 'checklimitdest' option will no longer be supported in future releases. Use 'spectre -h' to see other recommended values for the 'checklimitdest' option.


**********************************************************
Transient Analysis `trans-000_trans': time = (0 s -> 1 us)
**********************************************************

Notice from spectre during IC analysis, during transient analysis `trans-000_trans', during task `MDLControl'.
    GminDC = 1 pS is large enough to noticeably affect the DC solution.
        dV(I13.NM0:int_d) = -352.867 uV
        Use the `gmin_check' option to eliminate or expand this report.

DC simulation time: CPU = 3.999 ms, elapsed = 3.85189 ms.

Opening the PSFXL file ./input.raw/trans-000_trans.tran.tran ...
Important parameter values:
    start = 0 s
    outputstart = 0 s
    stop = 1 us
    step = 1 ns
    maxstep = 20 ns
    ic = all
    useprevic = no
    skipdc = no
    reltol = 1e-03
    abstol(V) = 1 uV
    abstol(I) = 1 pA
    temp = 27 C
    tnom = 27 C
    tempeffects = all
    errpreset = moderate
    method = traponly
    lteratio = 3.5
    relref = sigglobal
    cmin = 0 F
    gmin = 1 pS


Output and IC/nodeset summary:
                 save   1       (current)
                 save   21      (voltage)

......9......8

Notice from spectre at time = 200.003 ns during transient analysis `trans-000_trans', during task `MDLControl'.
    Found trapezoidal ringing on node I13.NM6:int_s.
Notice from spectre at time = 200.004 ns during transient analysis `trans-000_trans', during task `MDLControl'.
    Found trapezoidal ringing on node I13.NM6:int_s.
Notice from spectre at time = 200.006 ns during transient analysis `trans-000_trans', during task `MDLControl'.
    Found trapezoidal ringing on node I13.NM6:int_s.
Notice from spectre at time = 200.01 ns during transient analysis `trans-000_trans', during task `MDLControl'.
    Found trapezoidal ringing on node I13.NM6:int_s.
Notice from spectre at time = 200.015 ns during transient analysis `trans-000_trans', during task `MDLControl'.
    Found trapezoidal ringing on node I13.NM6:int_s.
        Further occurrences of this notice will be suppressed.

......9......8......7......6......5......4......3......2......1......0
Number of accepted tran steps =             507

Notice from spectre during transient analysis `trans-000_trans', during task `MDLControl'.
    Trapezoidal ringing is detected during tran analysis.
        Please use method=trap for better results and performance.


Maximum value achieved for any signal of each quantity: 
V: V(I13.PM2:int_s) = 356 mV
I: I(V0:p) = 127.1 uA
If your circuit contains signals of the same quantity that are vastly different in size (such as high voltage circuitry combined with low voltage control circuitry), you should consider specifying global option `bin_relref=yes'.

~~~~~~~~~~~~~~~~~~~~~~~~~~~~~~~~~
Post-Transient Simulation Summary
~~~~~~~~~~~~~~~~~~~~~~~~~~~~~~~~~
   -   To further speed up simulation, consider
          add ++aps on command line
~~~~~~~~~~~~~~~~~~~~~~~~~~~~~~~~~


During simulation, the CPU load for active processors is :
         0 (44.3 %)      1 (34.6 %)      2 (12.5 %)      3 (29.0 %)
        Total: 120.4%
Initial condition solution time: CPU = 3.999 ms, elapsed = 3.89695 ms.
Intrinsic tran analysis time:    CPU = 237.963 ms, elapsed = 274.781 ms.
Total time required for tran analysis `trans-000_trans': CPU = 244.962 ms, elapsed = 281.601 ms.
Time accumulated: CPU = 6.33304 s, elapsed = 7.1525 s.
Peak resident memory used = 132 Mbytes.


Notice from spectre during task `MDLControl'.
    17 notices suppressed.
Warning from spectre.
    WARNING (SPECTRE-17101): The value 'psf' specified for the 'checklimitdest' option will no longer be supported in future releases. Use 'spectre -h' to see other recommended values for the 'checklimitdest' option.
    WARNING (SPECTRE-17101): The value 'psf' specified for the 'checklimitdest' option will no longer be supported in future releases. Use 'spectre -h' to see other recommended values for the 'checklimitdest' option.


**********************************************************
Transient Analysis `trans-000_trans': time = (0 s -> 1 us)
**********************************************************

Notice from spectre during IC analysis, during transient analysis `trans-000_trans', during task `MDLControl'.
    GminDC = 1 pS is large enough to noticeably affect the DC solution.
        dV(I13.NM0:int_d) = -352.866 uV
        Use the `gmin_check' option to eliminate or expand this report.

DC simulation time: CPU = 3.999 ms, elapsed = 3.75485 ms.

Opening the PSFXL file ./input.raw/trans-000_trans.tran.tran ...
Important parameter values:
    start = 0 s
    outputstart = 0 s
    stop = 1 us
    step = 1 ns
    maxstep = 20 ns
    ic = all
    useprevic = no
    skipdc = no
    reltol = 1e-03
    abstol(V) = 1 uV
    abstol(I) = 1 pA
    temp = 27 C
    tnom = 27 C
    tempeffects = all
    errpreset = moderate
    method = traponly
    lteratio = 3.5
    relref = sigglobal
    cmin = 0 F
    gmin = 1 pS


Output and IC/nodeset summary:
                 save   1       (current)
                 save   21      (voltage)

......9......8

Notice from spectre at time = 200.003 ns during transient analysis `trans-000_trans', during task `MDLControl'.
    Found trapezoidal ringing on node I13.NM6:int_s.
Notice from spectre at time = 200.004 ns during transient analysis `trans-000_trans', during task `MDLControl'.
    Found trapezoidal ringing on node I13.NM6:int_s.
Notice from spectre at time = 200.006 ns during transient analysis `trans-000_trans', during task `MDLControl'.
    Found trapezoidal ringing on node I13.NM6:int_s.
Notice from spectre at time = 200.01 ns during transient analysis `trans-000_trans', during task `MDLControl'.
    Found trapezoidal ringing on node I13.NM6:int_s.
Notice from spectre at time = 200.015 ns during transient analysis `trans-000_trans', during task `MDLControl'.
    Found trapezoidal ringing on node I13.NM6:int_s.
        Further occurrences of this notice will be suppressed.

......9......8......7......6......5......4......3......2......1......0
Number of accepted tran steps =             507

Notice from spectre during transient analysis `trans-000_trans', during task `MDLControl'.
    Trapezoidal ringing is detected during tran analysis.
        Please use method=trap for better results and performance.


Maximum value achieved for any signal of each quantity: 
V: V(I13.PM2:int_s) = 356 mV
I: I(V0:p) = 127.1 uA
If your circuit contains signals of the same quantity that are vastly different in size (such as high voltage circuitry combined with low voltage control circuitry), you should consider specifying global option `bin_relref=yes'.

~~~~~~~~~~~~~~~~~~~~~~~~~~~~~~~~~
Post-Transient Simulation Summary
~~~~~~~~~~~~~~~~~~~~~~~~~~~~~~~~~
   -   To further speed up simulation, consider
          add ++aps on command line
~~~~~~~~~~~~~~~~~~~~~~~~~~~~~~~~~


During simulation, the CPU load for active processors is :
         0 (46.6 %)      1 (33.3 %)      2 (12.7 %)      3 (27.7 %)
        Total: 120.3%
Initial condition solution time: CPU = 3.999 ms, elapsed = 3.79586 ms.
Intrinsic tran analysis time:    CPU = 236.964 ms, elapsed = 271.834 ms.
Total time required for tran analysis `trans-000_trans': CPU = 242.963 ms, elapsed = 278.457 ms.
Time accumulated: CPU = 6.64599 s, elapsed = 7.50165 s.
Peak resident memory used = 132 Mbytes.


Notice from spectre during task `MDLControl'.
    17 notices suppressed.
Warning from spectre.
    WARNING (SPECTRE-17101): The value 'psf' specified for the 'checklimitdest' option will no longer be supported in future releases. Use 'spectre -h' to see other recommended values for the 'checklimitdest' option.
    WARNING (SPECTRE-17101): The value 'psf' specified for the 'checklimitdest' option will no longer be supported in future releases. Use 'spectre -h' to see other recommended values for the 'checklimitdest' option.


**********************************************************
Transient Analysis `trans-000_trans': time = (0 s -> 1 us)
**********************************************************

Notice from spectre during IC analysis, during transient analysis `trans-000_trans', during task `MDLControl'.
    GminDC = 1 pS is large enough to noticeably affect the DC solution.
        dV(I13.NM0:int_d) = -421.188 uV
        Use the `gmin_check' option to eliminate or expand this report.

DC simulation time: CPU = 3 ms, elapsed = 3.47805 ms.

Opening the PSFXL file ./input.raw/trans-000_trans.tran.tran ...
Important parameter values:
    start = 0 s
    outputstart = 0 s
    stop = 1 us
    step = 1 ns
    maxstep = 20 ns
    ic = all
    useprevic = no
    skipdc = no
    reltol = 1e-03
    abstol(V) = 1 uV
    abstol(I) = 1 pA
    temp = 27 C
    tnom = 27 C
    tempeffects = all
    errpreset = moderate
    method = traponly
    lteratio = 3.5
    relref = sigglobal
    cmin = 0 F
    gmin = 1 pS


Output and IC/nodeset summary:
                 save   1       (current)
                 save   21      (voltage)

......9

Notice from spectre at time = 100.004 ns during transient analysis `trans-000_trans', during task `MDLControl'.
    Found trapezoidal ringing on node I13.NM1:int_s.
Notice from spectre at time = 100.006 ns during transient analysis `trans-000_trans', during task `MDLControl'.
    Found trapezoidal ringing on node I13.NM1:int_s.
Notice from spectre at time = 100.011 ns during transient analysis `trans-000_trans', during task `MDLControl'.
    Found trapezoidal ringing on node I13.NM1:int_s.
Notice from spectre at time = 100.021 ns during transient analysis `trans-000_trans', during task `MDLControl'.
    Found trapezoidal ringing on node I13.NM1:int_s.
Notice from spectre at time = 100.04 ns during transient analysis `trans-000_trans', during task `MDLControl'.
    Found trapezoidal ringing on node I13.NM1:int_s.
        Further occurrences of this notice will be suppressed.

......9......8......7......6......5......4......3......2......1......0
Number of accepted tran steps =             515

Notice from spectre during transient analysis `trans-000_trans', during task `MDLControl'.
    Trapezoidal ringing is detected during tran analysis.
        Please use method=trap for better results and performance.


Maximum value achieved for any signal of each quantity: 
V: V(I13.PM2:int_s) = 355.2 mV
I: I(V0:p) = 112.2 uA
If your circuit contains signals of the same quantity that are vastly different in size (such as high voltage circuitry combined with low voltage control circuitry), you should consider specifying global option `bin_relref=yes'.

~~~~~~~~~~~~~~~~~~~~~~~~~~~~~~~~~
Post-Transient Simulation Summary
~~~~~~~~~~~~~~~~~~~~~~~~~~~~~~~~~
   -   To further speed up simulation, consider
          add ++aps on command line
~~~~~~~~~~~~~~~~~~~~~~~~~~~~~~~~~


During simulation, the CPU load for active processors is :
         0 (46.1 %)      1 (32.2 %)      2 (12.7 %)      3 (29.6 %)
        Total: 120.7%
Initial condition solution time: CPU = 3 ms, elapsed = 3.51501 ms.
Intrinsic tran analysis time:    CPU = 247.963 ms, elapsed = 285.685 ms.
Total time required for tran analysis `trans-000_trans': CPU = 254.962 ms, elapsed = 291.821 ms.
Time accumulated: CPU = 6.96794 s, elapsed = 7.86251 s.
Peak resident memory used = 132 Mbytes.


Notice from spectre during task `MDLControl'.
    20 notices suppressed.
Warning from spectre.
    WARNING (SPECTRE-17101): The value 'psf' specified for the 'checklimitdest' option will no longer be supported in future releases. Use 'spectre -h' to see other recommended values for the 'checklimitdest' option.


**********************************************************
Transient Analysis `trans-000_trans': time = (0 s -> 1 us)
**********************************************************

Notice from spectre during IC analysis, during transient analysis `trans-000_trans', during task `MDLControl'.
    GminDC = 1 pS is large enough to noticeably affect the DC solution.
        dV(I13.NM0:int_d) = -421.188 uV
        Use the `gmin_check' option to eliminate or expand this report.

DC simulation time: CPU = 3.999 ms, elapsed = 3.52407 ms.

Opening the PSFXL file ./input.raw/trans-000_trans.tran.tran ...
Important parameter values:
    start = 0 s
    outputstart = 0 s
    stop = 1 us
    step = 1 ns
    maxstep = 20 ns
    ic = all
    useprevic = no
    skipdc = no
    reltol = 1e-03
    abstol(V) = 1 uV
    abstol(I) = 1 pA
    temp = 27 C
    tnom = 27 C
    tempeffects = all
    errpreset = moderate
    method = traponly
    lteratio = 3.5
    relref = sigglobal
    cmin = 0 F
    gmin = 1 pS


Output and IC/nodeset summary:
                 save   1       (current)
                 save   21      (voltage)

......9

Notice from spectre at time = 100.004 ns during transient analysis `trans-000_trans', during task `MDLControl'.
    Found trapezoidal ringing on node I13.NM1:int_s.
Notice from spectre at time = 100.006 ns during transient analysis `trans-000_trans', during task `MDLControl'.
    Found trapezoidal ringing on node I13.NM1:int_s.
Notice from spectre at time = 100.011 ns during transient analysis `trans-000_trans', during task `MDLControl'.
    Found trapezoidal ringing on node I13.NM1:int_s.
Notice from spectre at time = 100.021 ns during transient analysis `trans-000_trans', during task `MDLControl'.
    Found trapezoidal ringing on node I13.NM1:int_s.
Notice from spectre at time = 100.04 ns during transient analysis `trans-000_trans', during task `MDLControl'.
    Found trapezoidal ringing on node I13.NM1:int_s.
        Further occurrences of this notice will be suppressed.

......9......8......7......6......5......4......3......2......1......0
Number of accepted tran steps =             515

Notice from spectre during transient analysis `trans-000_trans', during task `MDLControl'.
    Trapezoidal ringing is detected during tran analysis.
        Please use method=trap for better results and performance.


Maximum value achieved for any signal of each quantity: 
V: V(I13.PM2:int_s) = 355.2 mV
I: I(V0:p) = 112.2 uA
If your circuit contains signals of the same quantity that are vastly different in size (such as high voltage circuitry combined with low voltage control circuitry), you should consider specifying global option `bin_relref=yes'.

~~~~~~~~~~~~~~~~~~~~~~~~~~~~~~~~~
Post-Transient Simulation Summary
~~~~~~~~~~~~~~~~~~~~~~~~~~~~~~~~~
   -   To further speed up simulation, consider
          add ++aps on command line
~~~~~~~~~~~~~~~~~~~~~~~~~~~~~~~~~


During simulation, the CPU load for active processors is :
         0 (47.9 %)      1 (31.2 %)      2 (12.4 %)      3 (29.0 %)
        Total: 120.5%
Initial condition solution time: CPU = 3.999 ms, elapsed = 3.56102 ms.
Intrinsic tran analysis time:    CPU = 246.962 ms, elapsed = 283.537 ms.
Total time required for tran analysis `trans-000_trans': CPU = 252.961 ms, elapsed = 289.773 ms.
Time accumulated: CPU = 7.2569 s, elapsed = 8.18768 s.
Peak resident memory used = 132 Mbytes.


Notice from spectre during task `MDLControl'.
    20 notices suppressed.
Warning from spectre.
    WARNING (SPECTRE-17101): The value 'psf' specified for the 'checklimitdest' option will no longer be supported in future releases. Use 'spectre -h' to see other recommended values for the 'checklimitdest' option.
    WARNING (SPECTRE-17101): The value 'psf' specified for the 'checklimitdest' option will no longer be supported in future releases. Use 'spectre -h' to see other recommended values for the 'checklimitdest' option.


**********************************************************
Transient Analysis `trans-000_trans': time = (0 s -> 1 us)
**********************************************************

Notice from spectre during IC analysis, during transient analysis `trans-000_trans', during task `MDLControl'.
    GminDC = 1 pS is large enough to noticeably affect the DC solution.
        dV(I13.NM0:int_d) = -421.186 uV
        Use the `gmin_check' option to eliminate or expand this report.

DC simulation time: CPU = 3.999 ms, elapsed = 3.59297 ms.

Opening the PSFXL file ./input.raw/trans-000_trans.tran.tran ...
Important parameter values:
    start = 0 s
    outputstart = 0 s
    stop = 1 us
    step = 1 ns
    maxstep = 20 ns
    ic = all
    useprevic = no
    skipdc = no
    reltol = 1e-03
    abstol(V) = 1 uV
    abstol(I) = 1 pA
    temp = 27 C
    tnom = 27 C
    tempeffects = all
    errpreset = moderate
    method = traponly
    lteratio = 3.5
    relref = sigglobal
    cmin = 0 F
    gmin = 1 pS


Output and IC/nodeset summary:
                 save   1       (current)
                 save   21      (voltage)

......9

Notice from spectre at time = 100.004 ns during transient analysis `trans-000_trans', during task `MDLControl'.
    Found trapezoidal ringing on node I13.NM1:int_s.
Notice from spectre at time = 100.006 ns during transient analysis `trans-000_trans', during task `MDLControl'.
    Found trapezoidal ringing on node I13.NM1:int_s.
Notice from spectre at time = 100.011 ns during transient analysis `trans-000_trans', during task `MDLControl'.
    Found trapezoidal ringing on node I13.NM1:int_s.
Notice from spectre at time = 100.021 ns during transient analysis `trans-000_trans', during task `MDLControl'.
    Found trapezoidal ringing on node I13.NM1:int_s.
Notice from spectre at time = 100.04 ns during transient analysis `trans-000_trans', during task `MDLControl'.
    Found trapezoidal ringing on node I13.NM1:int_s.
        Further occurrences of this notice will be suppressed.

......9......8......7......6......5......4......3......2......1......0
Number of accepted tran steps =             515

Notice from spectre during transient analysis `trans-000_trans', during task `MDLControl'.
    Trapezoidal ringing is detected during tran analysis.
        Please use method=trap for better results and performance.


Maximum value achieved for any signal of each quantity: 
V: V(I13.PM2:int_s) = 355.2 mV
I: I(V0:p) = 112.2 uA
If your circuit contains signals of the same quantity that are vastly different in size (such as high voltage circuitry combined with low voltage control circuitry), you should consider specifying global option `bin_relref=yes'.

~~~~~~~~~~~~~~~~~~~~~~~~~~~~~~~~~
Post-Transient Simulation Summary
~~~~~~~~~~~~~~~~~~~~~~~~~~~~~~~~~
   -   To further speed up simulation, consider
          add ++aps on command line
~~~~~~~~~~~~~~~~~~~~~~~~~~~~~~~~~


During simulation, the CPU load for active processors is :
         0 (49.8 %)      1 (30.7 %)      2 (12.3 %)      3 (27.8 %)
        Total: 120.6%
Initial condition solution time: CPU = 3.999 ms, elapsed = 3.63088 ms.
Intrinsic tran analysis time:    CPU = 249.962 ms, elapsed = 283.786 ms.
Total time required for tran analysis `trans-000_trans': CPU = 256.961 ms, elapsed = 291.052 ms.
Time accumulated: CPU = 7.58285 s, elapsed = 8.5484 s.
Peak resident memory used = 132 Mbytes.


Notice from spectre during task `MDLControl'.
    20 notices suppressed.
Warning from spectre.
    WARNING (SPECTRE-17101): The value 'psf' specified for the 'checklimitdest' option will no longer be supported in future releases. Use 'spectre -h' to see other recommended values for the 'checklimitdest' option.
    WARNING (SPECTRE-17101): The value 'psf' specified for the 'checklimitdest' option will no longer be supported in future releases. Use 'spectre -h' to see other recommended values for the 'checklimitdest' option.


**********************************************************
Transient Analysis `trans-000_trans': time = (0 s -> 1 us)
**********************************************************

Notice from spectre during IC analysis, during transient analysis `trans-000_trans', during task `MDLControl'.
    GminDC = 1 pS is large enough to noticeably affect the DC solution.
        dV(I13.NM0:int_d) = -421.188 uV
        Use the `gmin_check' option to eliminate or expand this report.

DC simulation time: CPU = 4 ms, elapsed = 3.45707 ms.

Opening the PSFXL file ./input.raw/trans-000_trans.tran.tran ...
Important parameter values:
    start = 0 s
    outputstart = 0 s
    stop = 1 us
    step = 1 ns
    maxstep = 20 ns
    ic = all
    useprevic = no
    skipdc = no
    reltol = 1e-03
    abstol(V) = 1 uV
    abstol(I) = 1 pA
    temp = 27 C
    tnom = 27 C
    tempeffects = all
    errpreset = moderate
    method = traponly
    lteratio = 3.5
    relref = sigglobal
    cmin = 0 F
    gmin = 1 pS


Output and IC/nodeset summary:
                 save   1       (current)
                 save   21      (voltage)

......9

Notice from spectre at time = 100.004 ns during transient analysis `trans-000_trans', during task `MDLControl'.
    Found trapezoidal ringing on node I13.NM1:int_s.
Notice from spectre at time = 100.006 ns during transient analysis `trans-000_trans', during task `MDLControl'.
    Found trapezoidal ringing on node I13.NM1:int_s.
Notice from spectre at time = 100.011 ns during transient analysis `trans-000_trans', during task `MDLControl'.
    Found trapezoidal ringing on node I13.NM1:int_s.
Notice from spectre at time = 100.021 ns during transient analysis `trans-000_trans', during task `MDLControl'.
    Found trapezoidal ringing on node I13.NM1:int_s.
Notice from spectre at time = 100.04 ns during transient analysis `trans-000_trans', during task `MDLControl'.
    Found trapezoidal ringing on node I13.NM1:int_s.
        Further occurrences of this notice will be suppressed.

......9......8......7......6......5......4......3......2......1......0
Number of accepted tran steps =             515

[...]
Intrinsic tran analysis time:    CPU = 245.963 ms, elapsed = 283.235 ms.
Total time required for tran analysis `trans-000_trans': CPU = 252.962 ms, elapsed = 290.018 ms.
Time accumulated: CPU = 29.9215 s, elapsed = 33.2418 s.
Peak resident memory used = 132 Mbytes.


Notice from spectre during task `MDLControl'.
    22 notices suppressed.
Warning from spectre.
    WARNING (SPECTRE-17101): The value 'psf' specified for the 'checklimitdest' option will no longer be supported in future releases. Use 'spectre -h' to see other recommended values for the 'checklimitdest' option.
    WARNING (SPECTRE-17101): The value 'psf' specified for the 'checklimitdest' option will no longer be supported in future releases. Use 'spectre -h' to see other recommended values for the 'checklimitdest' option.


**********************************************************
Transient Analysis `trans-000_trans': time = (0 s -> 1 us)
**********************************************************

Notice from spectre during IC analysis, during transient analysis `trans-000_trans', during task `MDLControl'.
    GminDC = 1 pS is large enough to noticeably affect the DC solution.
        dV(I13.NM0:int_d) = -370.182 uV
        Use the `gmin_check' option to eliminate or expand this report.

DC simulation time: CPU = 3.999 ms, elapsed = 4.11701 ms.

Opening the PSFXL file ./input.raw/trans-000_trans.tran.tran ...
Important parameter values:
    start = 0 s
    outputstart = 0 s
    stop = 1 us
    step = 1 ns
    maxstep = 20 ns
    ic = all
    useprevic = no
    skipdc = no
    reltol = 1e-03
    abstol(V) = 1 uV
    abstol(I) = 1 pA
    temp = 27 C
    tnom = 27 C
    tempeffects = all
    errpreset = moderate
    method = traponly
    lteratio = 3.5
    relref = sigglobal
    cmin = 0 F
    gmin = 1 pS


Output and IC/nodeset summary:
                 save   1       (current)
                 save   21      (voltage)

......9......8

Notice from spectre at time = 200.003 ns during transient analysis `trans-000_trans', during task `MDLControl'.
    Found trapezoidal ringing on node I13.NM6:int_s.
Notice from spectre at time = 200.004 ns during transient analysis `trans-000_trans', during task `MDLControl'.
    Found trapezoidal ringing on node I13.NM6:int_s.
Notice from spectre at time = 200.006 ns during transient analysis `trans-000_trans', during task `MDLControl'.
    Found trapezoidal ringing on node I13.NM6:int_s.
Notice from spectre at time = 200.008 ns during transient analysis `trans-000_trans', during task `MDLControl'.
    Found trapezoidal ringing on node I13.NM6:int_s.
Notice from spectre at time = 200.012 ns during transient analysis `trans-000_trans', during task `MDLControl'.
    Found trapezoidal ringing on node I13.NM6:int_s.
        Further occurrences of this notice will be suppressed.

......9......8......7......6......5......4......3......2......1......0
Number of accepted tran steps =             511

Notice from spectre during transient analysis `trans-000_trans', during task `MDLControl'.
    Trapezoidal ringing is detected during tran analysis.
        Please use method=trap for better results and performance.


Maximum value achieved for any signal of each quantity: 
V: V(I13.mp25:int_d) = 355 mV
I: I(V0:p) = 104.3 uA
If your circuit contains signals of the same quantity that are vastly different in size (such as high voltage circuitry combined with low voltage control circuitry), you should consider specifying global option `bin_relref=yes'.

~~~~~~~~~~~~~~~~~~~~~~~~~~~~~~~~~
Post-Transient Simulation Summary
~~~~~~~~~~~~~~~~~~~~~~~~~~~~~~~~~
   -   To further speed up simulation, consider
          add ++aps on command line
~~~~~~~~~~~~~~~~~~~~~~~~~~~~~~~~~


During simulation, the CPU load for active processors is :
         0 (66.0 %)      1 (30.3 %)      2 (14.4 %)      3 (12.9 %)
        Total: 123.6%
Initial condition solution time: CPU = 3.999 ms, elapsed = 4.15492 ms.
Intrinsic tran analysis time:    CPU = 245.963 ms, elapsed = 277.948 ms.
Total time required for tran analysis `trans-000_trans': CPU = 252.961 ms, elapsed = 284.729 ms.
Time accumulated: CPU = 30.2464 s, elapsed = 33.6005 s.
Peak resident memory used = 132 Mbytes.


Notice from spectre during task `MDLControl'.
    22 notices suppressed.
Warning from spectre.
    WARNING (SPECTRE-17101): The value 'psf' specified for the 'checklimitdest' option will no longer be supported in future releases. Use 'spectre -h' to see other recommended values for the 'checklimitdest' option.
    WARNING (SPECTRE-17101): The value 'psf' specified for the 'checklimitdest' option will no longer be supported in future releases. Use 'spectre -h' to see other recommended values for the 'checklimitdest' option.


**********************************************************
Transient Analysis `trans-000_trans': time = (0 s -> 1 us)
**********************************************************

Notice from spectre during IC analysis, during transient analysis `trans-000_trans', during task `MDLControl'.
    GminDC = 1 pS is large enough to noticeably affect the DC solution.
        dV(I13.NM0:int_d) = -370.185 uV
        Use the `gmin_check' option to eliminate or expand this report.

DC simulation time: CPU = 4.999 ms, elapsed = 4.36711 ms.

Opening the PSFXL file ./input.raw/trans-000_trans.tran.tran ...
Important parameter values:
    start = 0 s
    outputstart = 0 s
    stop = 1 us
    step = 1 ns
    maxstep = 20 ns
    ic = all
    useprevic = no
    skipdc = no
    reltol = 1e-03
    abstol(V) = 1 uV
    abstol(I) = 1 pA
    temp = 27 C
    tnom = 27 C
    tempeffects = all
    errpreset = moderate
    method = traponly
    lteratio = 3.5
    relref = sigglobal
    cmin = 0 F
    gmin = 1 pS


Output and IC/nodeset summary:
                 save   1       (current)
                 save   21      (voltage)

......9......8

Notice from spectre at time = 200.003 ns during transient analysis `trans-000_trans', during task `MDLControl'.
    Found trapezoidal ringing on node I13.NM6:int_s.
Notice from spectre at time = 200.004 ns during transient analysis `trans-000_trans', during task `MDLControl'.
    Found trapezoidal ringing on node I13.NM6:int_s.
Notice from spectre at time = 200.006 ns during transient analysis `trans-000_trans', during task `MDLControl'.
    Found trapezoidal ringing on node I13.NM6:int_s.
Notice from spectre at time = 200.008 ns during transient analysis `trans-000_trans', during task `MDLControl'.
    Found trapezoidal ringing on node I13.NM6:int_s.
Notice from spectre at time = 200.012 ns during transient analysis `trans-000_trans', during task `MDLControl'.
    Found trapezoidal ringing on node I13.NM6:int_s.
        Further occurrences of this notice will be suppressed.

......9......8......7......6......5......4......3......2......1......0
Number of accepted tran steps =             511

Notice from spectre during transient analysis `trans-000_trans', during task `MDLControl'.
    Trapezoidal ringing is detected during tran analysis.
        Please use method=trap for better results and performance.


Maximum value achieved for any signal of each quantity: 
V: V(I13.mp25:int_d) = 355 mV
I: I(V0:p) = 104.3 uA
If your circuit contains signals of the same quantity that are vastly different in size (such as high voltage circuitry combined with low voltage control circuitry), you should consider specifying global option `bin_relref=yes'.

~~~~~~~~~~~~~~~~~~~~~~~~~~~~~~~~~
Post-Transient Simulation Summary
~~~~~~~~~~~~~~~~~~~~~~~~~~~~~~~~~
   -   To further speed up simulation, consider
          add ++aps on command line
~~~~~~~~~~~~~~~~~~~~~~~~~~~~~~~~~


During simulation, the CPU load for active processors is :
         0 (66.3 %)      1 (30.1 %)      2 (14.4 %)      3 (12.8 %)
        Total: 123.6%
Initial condition solution time: CPU = 4.999 ms, elapsed = 4.41694 ms.
Intrinsic tran analysis time:    CPU = 248.963 ms, elapsed = 298.979 ms.
Total time required for tran analysis `trans-000_trans': CPU = 255.962 ms, elapsed = 306.054 ms.
Time accumulated: CPU = 30.5724 s, elapsed = 33.9784 s.
Peak resident memory used = 132 Mbytes.


Notice from spectre during task `MDLControl'.
    22 notices suppressed.
Warning from spectre.
    WARNING (SPECTRE-17101): The value 'psf' specified for the 'checklimitdest' option will no longer be supported in future releases. Use 'spectre -h' to see other recommended values for the 'checklimitdest' option.
    WARNING (SPECTRE-17101): The value 'psf' specified for the 'checklimitdest' option will no longer be supported in future releases. Use 'spectre -h' to see other recommended values for the 'checklimitdest' option.


**********************************************************
Transient Analysis `trans-000_trans': time = (0 s -> 1 us)
**********************************************************

Notice from spectre during IC analysis, during transient analysis `trans-000_trans', during task `MDLControl'.
    GminDC = 1 pS is large enough to noticeably affect the DC solution.
        dV(I13.NM0:int_d) = -370.189 uV
        Use the `gmin_check' option to eliminate or expand this report.

DC simulation time: CPU = 2.999 ms, elapsed = 4.36497 ms.

Opening the PSFXL file ./input.raw/trans-000_trans.tran.tran ...
Important parameter values:
    start = 0 s
    outputstart = 0 s
    stop = 1 us
    step = 1 ns
    maxstep = 20 ns
    ic = all
    useprevic = no
    skipdc = no
    reltol = 1e-03
    abstol(V) = 1 uV
    abstol(I) = 1 pA
    temp = 27 C
    tnom = 27 C
    tempeffects = all
    errpreset = moderate
    method = traponly
    lteratio = 3.5
    relref = sigglobal
    cmin = 0 F
    gmin = 1 pS


Output and IC/nodeset summary:
                 save   1       (current)
                 save   21      (voltage)

......9......8

Notice from spectre at time = 200.003 ns during transient analysis `trans-000_trans', during task `MDLControl'.
    Found trapezoidal ringing on node I13.NM6:int_s.
Notice from spectre at time = 200.004 ns during transient analysis `trans-000_trans', during task `MDLControl'.
    Found trapezoidal ringing on node I13.NM6:int_s.
Notice from spectre at time = 200.006 ns during transient analysis `trans-000_trans', during task `MDLControl'.
    Found trapezoidal ringing on node I13.NM6:int_s.
Notice from spectre at time = 200.008 ns during transient analysis `trans-000_trans', during task `MDLControl'.
    Found trapezoidal ringing on node I13.NM6:int_s.
Notice from spectre at time = 200.012 ns during transient analysis `trans-000_trans', during task `MDLControl'.
    Found trapezoidal ringing on node I13.NM6:int_s.
        Further occurrences of this notice will be suppressed.

......9......8......7......6......5......4......3......2......1......0
Number of accepted tran steps =             511

Notice from spectre during transient analysis `trans-000_trans', during task `MDLControl'.
    Trapezoidal ringing is detected during tran analysis.
        Please use method=trap for better results and performance.


Maximum value achieved for any signal of each quantity: 
V: V(I13.mp25:int_d) = 355 mV
I: I(V0:p) = 104.3 uA
If your circuit contains signals of the same quantity that are vastly different in size (such as high voltage circuitry combined with low voltage control circuitry), you should consider specifying global option `bin_relref=yes'.

~~~~~~~~~~~~~~~~~~~~~~~~~~~~~~~~~
Post-Transient Simulation Summary
~~~~~~~~~~~~~~~~~~~~~~~~~~~~~~~~~
   -   To further speed up simulation, consider
          add ++aps on command line
~~~~~~~~~~~~~~~~~~~~~~~~~~~~~~~~~


During simulation, the CPU load for active processors is :
         0 (66.6 %)      1 (30.0 %)      2 (14.3 %)      3 (12.8 %)
        Total: 123.6%
Initial condition solution time: CPU = 2.999 ms, elapsed = 4.40288 ms.
Intrinsic tran analysis time:    CPU = 249.962 ms, elapsed = 280.132 ms.
Total time required for tran analysis `trans-000_trans': CPU = 256.96 ms, elapsed = 287.271 ms.
Time accumulated: CPU = 30.8983 s, elapsed = 34.3382 s.
Peak resident memory used = 132 Mbytes.


Notice from spectre during task `MDLControl'.
    22 notices suppressed.
Warning from spectre.
    WARNING (SPECTRE-17101): The value 'psf' specified for the 'checklimitdest' option will no longer be supported in future releases. Use 'spectre -h' to see other recommended values for the 'checklimitdest' option.
    WARNING (SPECTRE-17101): The value 'psf' specified for the 'checklimitdest' option will no longer be supported in future releases. Use 'spectre -h' to see other recommended values for the 'checklimitdest' option.


**********************************************************
Transient Analysis `trans-000_trans': time = (0 s -> 1 us)
**********************************************************

Notice from spectre during IC analysis, during transient analysis `trans-000_trans', during task `MDLControl'.
    GminDC = 1 pS is large enough to noticeably affect the DC solution.
        dV(I13.NM0:int_d) = -370.185 uV
        Use the `gmin_check' option to eliminate or expand this report.

DC simulation time: CPU = 4 ms, elapsed = 4.37903 ms.

Opening the PSFXL file ./input.raw/trans-000_trans.tran.tran ...
Important parameter values:
    start = 0 s
    outputstart = 0 s
    stop = 1 us
    step = 1 ns
    maxstep = 20 ns
    ic = all
    useprevic = no
    skipdc = no
    reltol = 1e-03
    abstol(V) = 1 uV
    abstol(I) = 1 pA
    temp = 27 C
    tnom = 27 C
    tempeffects = all
    errpreset = moderate
    method = traponly
    lteratio = 3.5
    relref = sigglobal
    cmin = 0 F
    gmin = 1 pS


Output and IC/nodeset summary:
                 save   1       (current)
                 save   21      (voltage)

......9......8

Notice from spectre at time = 200.003 ns during transient analysis `trans-000_trans', during task `MDLControl'.
    Found trapezoidal ringing on node I13.NM6:int_s.
Notice from spectre at time = 200.004 ns during transient analysis `trans-000_trans', during task `MDLControl'.
    Found trapezoidal ringing on node I13.NM6:int_s.
Notice from spectre at time = 200.006 ns during transient analysis `trans-000_trans', during task `MDLControl'.
    Found trapezoidal ringing on node I13.NM6:int_s.
Notice from spectre at time = 200.008 ns during transient analysis `trans-000_trans', during task `MDLControl'.
    Found trapezoidal ringing on node I13.NM6:int_s.
Notice from spectre at time = 200.012 ns during transient analysis `trans-000_trans', during task `MDLControl'.
    Found trapezoidal ringing on node I13.NM6:int_s.
        Further occurrences of this notice will be suppressed.

......9......8......7......6......5......4......3......2......1......0
Number of accepted tran steps =             511

Notice from spectre during transient analysis `trans-000_trans', during task `MDLControl'.
    Trapezoidal ringing is detected during tran analysis.
        Please use method=trap for better results and performance.


Maximum value achieved for any signal of each quantity: 
V: V(I13.mp25:int_d) = 355 mV
I: I(V0:p) = 104.3 uA
If your circuit contains signals of the same quantity that are vastly different in size (such as high voltage circuitry combined with low voltage control circuitry), you should consider specifying global option `bin_relref=yes'.

~~~~~~~~~~~~~~~~~~~~~~~~~~~~~~~~~
Post-Transient Simulation Summary
~~~~~~~~~~~~~~~~~~~~~~~~~~~~~~~~~
   -   To further speed up simulation, consider
          add ++aps on command line
~~~~~~~~~~~~~~~~~~~~~~~~~~~~~~~~~


During simulation, the CPU load for active processors is :
         0 (66.9 %)      1 (29.8 %)      2 (14.3 %)      3 (12.6 %)
        Total: 123.6%
Initial condition solution time: CPU = 4 ms, elapsed = 4.4179 ms.
Intrinsic tran analysis time:    CPU = 244.963 ms, elapsed = 283.576 ms.
Total time required for tran analysis `trans-000_trans': CPU = 252.962 ms, elapsed = 290.654 ms.
Time accumulated: CPU = 31.2223 s, elapsed = 34.7013 s.
Peak resident memory used = 132 Mbytes.


Notice from spectre during task `MDLControl'.
    22 notices suppressed.


**********************************************************
Transient Analysis `trans-000_trans': time = (0 s -> 1 us)
**********************************************************

Notice from spectre during IC analysis, during transient analysis `trans-000_trans', during task `MDLControl'.
    GminDC = 1 pS is large enough to noticeably affect the DC solution.
        dV(I13.NM0:int_d) = -370.185 uV
        Use the `gmin_check' option to eliminate or expand this report.

DC simulation time: CPU = 4.999 ms, elapsed = 4.3819 ms.

Opening the PSFXL file ./input.raw/trans-000_trans.tran.tran ...
Important parameter values:
    start = 0 s
    outputstart = 0 s
    stop = 1 us
    step = 1 ns
    maxstep = 20 ns
    ic = all
    useprevic = no
    skipdc = no
    reltol = 1e-03
    abstol(V) = 1 uV
    abstol(I) = 1 pA
    temp = 27 C
    tnom = 27 C
    tempeffects = all
    errpreset = moderate
    method = traponly
    lteratio = 3.5
    relref = sigglobal
    cmin = 0 F
    gmin = 1 pS


Output and IC/nodeset summary:
                 save   1       (current)
                 save   21      (voltage)

......9......8

Notice from spectre at time = 200.003 ns during transient analysis `trans-000_trans', during task `MDLControl'.
    Found trapezoidal ringing on node I13.NM6:int_s.
Notice from spectre at time = 200.004 ns during transient analysis `trans-000_trans', during task `MDLControl'.
    Found trapezoidal ringing on node I13.NM6:int_s.
Notice from spectre at time = 200.006 ns during transient analysis `trans-000_trans', during task `MDLControl'.
    Found trapezoidal ringing on node I13.NM6:int_s.
Notice from spectre at time = 200.008 ns during transient analysis `trans-000_trans', during task `MDLControl'.
    Found trapezoidal ringing on node I13.NM6:int_s.
Notice from spectre at time = 200.012 ns during transient analysis `trans-000_trans', during task `MDLControl'.
    Found trapezoidal ringing on node I13.NM6:int_s.
        Further occurrences of this notice will be suppressed.

......9......8......7......6......5......4......3......2......1......0
Number of accepted tran steps =             511

Notice from spectre during transient analysis `trans-000_trans', during task `MDLControl'.
    Trapezoidal ringing is detected during tran analysis.
        Please use method=trap for better results and performance.


Maximum value achieved for any signal of each quantity: 
V: V(I13.mp25:int_d) = 355 mV
I: I(V0:p) = 104.3 uA
If your circuit contains signals of the same quantity that are vastly different in size (such as high voltage circuitry combined with low voltage control circuitry), you should consider specifying global option `bin_relref=yes'.

~~~~~~~~~~~~~~~~~~~~~~~~~~~~~~~~~
Post-Transient Simulation Summary
~~~~~~~~~~~~~~~~~~~~~~~~~~~~~~~~~
   -   To further speed up simulation, consider
          add ++aps on command line
~~~~~~~~~~~~~~~~~~~~~~~~~~~~~~~~~


During simulation, the CPU load for active processors is :
         0 (66.5 %)      1 (30.2 %)      2 (14.4 %)      3 (12.5 %)
        Total: 123.6%
Initial condition solution time: CPU = 4.999 ms, elapsed = 4.42004 ms.
Intrinsic tran analysis time:    CPU = 239.964 ms, elapsed = 281.602 ms.
Total time required for tran analysis `trans-000_trans': CPU = 247.962 ms, elapsed = 288.792 ms.
Time accumulated: CPU = 31.4722 s, elapsed = 34.9925 s.
Peak resident memory used = 132 Mbytes.


Notice from spectre during task `MDLControl'.
    22 notices suppressed.


Aggregate audit (3:48:43 PM, Mon Dec 27, 2021):
Time used: CPU = 31.5 s, elapsed = 35.1 s, util. = 89.8%.
Time spent in licensing: elapsed = 236 ms.
Peak memory used = 133 Mbytes.
Simulation started at: 3:48:08 PM, Mon Dec 27, 2021, ended at: 3:48:43 PM, Mon Dec 27, 2021, with elapsed time (wall clock): 35.1 s.
spectre completes with 0 errors, 171 warnings, and 760 notices.
