
Spectre (R) Circuit Simulator
Version 19.1.0.396.isr8 64bit -- 19 Jun 2020
Copyright (C) 1989-2020 Cadence Design Systems, Inc. All rights reserved worldwide. Cadence and Spectre are registered trademarks of Cadence Design Systems, Inc. All others are the property of their respective holders.

Includes RSA BSAFE(R) Cryptographic or Security Protocol Software from RSA Security, Inc.

User: VLSI_ANALOG   Host: cad19   HostID: 7F0100   PID: 7494
Memory  available: 124.1169 MB  physical: 3.9726 GB
Linux   : Red Hat Enterprise Linux Server release 6.9 (Santiago)
CPU Type: Intel(R) Core(TM) i5-2320 CPU @ 3.00GHz
All processors running at 1600.0 MHz
        Socket: Processors
        0:       0,  1,  2,  3
        
System load averages (1min, 5min, 15min) : 0.2 %, 0.8 %, 0.0 %


Simulating `./input.scs' on cad19 at 8:16:29 PM, Sun Dec 26, 2021 (process id: 7494).
Current working directory: /home/VLSI_ANALOG/UMC40/Optimisation/NAND2M1
Command line:
    /home/installs/SPECTRE191/tools.lnx86/bin/spectre -64 =mdl  \
        input.mdl ./input.scs

Loading /home/installs/SPECTRE191/tools.lnx86/cmi/lib/64bit/5.0/libinfineon_sh.so ...
Loading /home/installs/SPECTRE191/tools.lnx86/cmi/lib/64bit/5.0/libphilips_o_sh.so ...
Loading /home/installs/SPECTRE191/tools.lnx86/cmi/lib/64bit/5.0/libphilips_sh.so ...
Loading /home/installs/SPECTRE191/tools.lnx86/cmi/lib/64bit/5.0/libsparam_sh.so ...
Loading /home/installs/SPECTRE191/tools.lnx86/cmi/lib/64bit/5.0/libstmodels_sh.so ...
Loading /home/installs/SPECTRE191/tools.lnx86/spectre/lib/64bit/mdl/libSpectreEH_sh.so ...
Reading file:  /home/VLSI_ANALOG/UMC40/Optimisation/NAND2M1/input.mdl
Reading file:  /home/VLSI_ANALOG/UMC40/Optimisation/NAND2M1/input.scs
Reading file:  /home/installs/SPECTRE191/tools.lnx86/spectre/etc/configs/spectre.cfg
Reading file:  /home/VLSI_ANALOG/UMC40/FDK_LP/Models/Spectre/l40lp_rf_v152_e.lib.scs
Reading file:  /home/VLSI_ANALOG/UMC40/FDK_LP/Models/Spectre/l40lp_mm_v1101_e.lib.scs
Time for NDB Parsing: CPU = 1.3008 s, elapsed = 1.59068 s.
Time accumulated: CPU = 1.45378 s, elapsed = 1.59068 s.
Peak resident memory used = 114 Mbytes.

Time for Elaboration: CPU = 33.995 ms, elapsed = 34.559 ms.
Time accumulated: CPU = 1.48777 s, elapsed = 1.62542 s.
Peak resident memory used = 124 Mbytes.


Warning from spectre during hierarchy flattening.
    WARNING (SPECTRE-17101): The value 'psf' specified for the 'checklimitdest' option will no longer be supported in future releases. Use 'spectre -h' to see other recommended values for the 'checklimitdest' option.


Time for EDB Visiting: CPU = 1 ms, elapsed = 995.159 us.
Time accumulated: CPU = 1.48877 s, elapsed = 1.62658 s.
Peak resident memory used = 125 Mbytes.


Global user options:
         psfversion = 1.4.0
            vabstol = 1e-06
            iabstol = 1e-12
               temp = 27
               gmin = 1e-12
             rforce = 1
           maxnotes = 5
           maxwarns = 5
             digits = 5
               cols = 80
             pivrel = 0.001
           sensfile = ../psf/sens.output
     checklimitdest = psf
               save = all
                pwr = all
           currents = all
             reltol = 0.001
               tnom = 27
             scalem = 1
              scale = 1

Scoped user options:

Circuit inventory:
              nodes 5
              bsim4 4     
          capacitor 1     
            vsource 3     

Analysis and control statement inventory:
                 dc 2     
               info 8     
               tran 1     

Output statements:
             .probe 0     
           .measure 0     
               save 0     

Time for parsing: CPU = 2.999 ms, elapsed = 176.409 ms.
Time accumulated: CPU = 1.49177 s, elapsed = 1.80311 s.
Peak resident memory used = 126 Mbytes.

~~~~~~~~~~~~~~~~~~~~~~
Pre-Simulation Summary
~~~~~~~~~~~~~~~~~~~~~~
~~~~~~~~~~~~~~~~~~~~~~

*************************************************
Transient Analysis `trans': time = (0 s -> 20 us)
*************************************************
DC simulation time: CPU = 1 ms, elapsed = 896.931 us.

Opening the PSFXL file ./input.raw/trans.tran.tran ...
Important parameter values:
    start = 0 s
    outputstart = 0 s
    stop = 20 us
    step = 20 ns
    maxstep = 400 ns
    ic = all
    useprevic = no
    skipdc = no
    reltol = 1e-03
    abstol(V) = 1 uV
    abstol(I) = 1 pA
    temp = 27 C
    tnom = 27 C
    tempeffects = all
    errpreset = moderate
    method = traponly
    lteratio = 3.5
    relref = sigglobal
    cmin = 0 F
    gmin = 1 pS


Output and IC/nodeset summary:
                 save   20      (current)
                 save   13      (voltage)
                 others 6       


Notice from spectre at time = 2.38486 ps during transient analysis `trans', during task `MDLControl'.
    Found trapezoidal ringing on node I9.NM1:int_s.
Notice from spectre at time = 3.16287 ps during transient analysis `trans', during task `MDLControl'.
    Found trapezoidal ringing on node I9.NM1:int_s.
Notice from spectre at time = 4.4345 ps during transient analysis `trans', during task `MDLControl'.
    Found trapezoidal ringing on node I9.NM1:int_s.
Notice from spectre at time = 6.51175 ps during transient analysis `trans', during task `MDLControl'.
    Found trapezoidal ringing on node I9.NM1:int_s.
Notice from spectre at time = 9.93595 ps during transient analysis `trans', during task `MDLControl'.
    Found trapezoidal ringing on node I9.NM1:int_s.
        Further occurrences of this notice will be suppressed.

......9......8....
`AutoStop = yes'. Analysis finished at 5 us.

Number of accepted tran steps =             223

Notice from spectre during transient analysis `trans', during task `MDLControl'.
    Trapezoidal ringing is detected during tran analysis.
        Please use method=trap for better results and performance.


Maximum value achieved for any signal of each quantity: 
V: V(I9.NM0:int_d) = 324.3 mV
I: I(V1:p) = 842.7 uA
If your circuit contains signals of the same quantity that are vastly different in size (such as high voltage circuitry combined with low voltage control circuitry), you should consider specifying global option `bin_relref=yes'.

~~~~~~~~~~~~~~~~~~~~~~~~~~~~~~~~~
Post-Transient Simulation Summary
~~~~~~~~~~~~~~~~~~~~~~~~~~~~~~~~~
   -   To further speed up simulation, consider
          add ++aps on command line
~~~~~~~~~~~~~~~~~~~~~~~~~~~~~~~~~


During simulation, the CPU load for active processors is :
         0 (17.0 %)      1 (13.7 %)      2 (8.2 %)       3 (73.5 %)
        Total: 112.5%
Initial condition solution time: CPU = 1 ms, elapsed = 992.06 us.
Intrinsic tran analysis time:    CPU = 33.995 ms, elapsed = 114.145 ms.
Total time required for tran analysis `trans': CPU = 39.994 ms, elapsed = 119.904 ms.
Time accumulated: CPU = 1.53877 s, elapsed = 1.9305 s.
Peak resident memory used = 130 Mbytes.


Notice from spectre during task `MDLControl'.
    63 notices suppressed.


******************************************
DC Analysis `dcs': V1:dc = (0 V -> 300 mV)
******************************************

Opening the PSF file ./input.raw/dcs.dc ...
Important parameter values:
    reltol = 1e-03
    abstol(V) = 1 uV
    abstol(I) = 1 pA
    temp = 27 C
    tnom = 27 C
    tempeffects = all
    gmindc = 1 pS
    dcs: dc = 12 mV          (4 %), step = 6 mV            (2 %)
    dcs: dc = 18 mV          (6 %), step = 6 mV            (2 %)
    dcs: dc = 24 mV          (8 %), step = 6 mV            (2 %)
    dcs: dc = 30 mV         (10 %), step = 6 mV            (2 %)
    dcs: dc = 36 mV         (12 %), step = 6 mV            (2 %)
    dcs: dc = 42 mV         (14 %), step = 6 mV            (2 %)
    dcs: dc = 48 mV         (16 %), step = 6 mV            (2 %)
    dcs: dc = 54 mV         (18 %), step = 6 mV            (2 %)
    dcs: dc = 60 mV         (20 %), step = 6 mV            (2 %)
    dcs: dc = 66 mV         (22 %), step = 6 mV            (2 %)
    dcs: dc = 72 mV         (24 %), step = 6 mV            (2 %)
    dcs: dc = 78 mV         (26 %), step = 6 mV            (2 %)
    dcs: dc = 84 mV         (28 %), step = 6 mV            (2 %)
    dcs: dc = 90 mV         (30 %), step = 6 mV            (2 %)
    dcs: dc = 96 mV         (32 %), step = 6 mV            (2 %)
    dcs: dc = 102 mV        (34 %), step = 6 mV            (2 %)
    dcs: dc = 108 mV        (36 %), step = 6 mV            (2 %)
    dcs: dc = 114 mV        (38 %), step = 6 mV            (2 %)
    dcs: dc = 120 mV        (40 %), step = 6 mV            (2 %)
    dcs: dc = 126 mV        (42 %), step = 6 mV            (2 %)
    dcs: dc = 132 mV        (44 %), step = 6 mV            (2 %)
    dcs: dc = 138 mV        (46 %), step = 6 mV            (2 %)
    dcs: dc = 144 mV        (48 %), step = 6 mV            (2 %)
    dcs: dc = 150 mV        (50 %), step = 6 mV            (2 %)
    dcs: dc = 156 mV        (52 %), step = 6 mV            (2 %)
    dcs: dc = 162 mV        (54 %), step = 6 mV            (2 %)
    dcs: dc = 168 mV        (56 %), step = 6 mV            (2 %)
    dcs: dc = 174 mV        (58 %), step = 6 mV            (2 %)
    dcs: dc = 180 mV        (60 %), step = 6 mV            (2 %)
    dcs: dc = 186 mV        (62 %), step = 6 mV            (2 %)
    dcs: dc = 192 mV        (64 %), step = 6 mV            (2 %)
    dcs: dc = 198 mV        (66 %), step = 6 mV            (2 %)
    dcs: dc = 204 mV        (68 %), step = 6 mV            (2 %)
    dcs: dc = 210 mV        (70 %), step = 6 mV            (2 %)
    dcs: dc = 216 mV        (72 %), step = 6 mV            (2 %)
    dcs: dc = 222 mV        (74 %), step = 6 mV            (2 %)
    dcs: dc = 228 mV        (76 %), step = 6 mV            (2 %)
    dcs: dc = 234 mV        (78 %), step = 6 mV            (2 %)
    dcs: dc = 240 mV        (80 %), step = 6 mV            (2 %)
    dcs: dc = 246 mV        (82 %), step = 6 mV            (2 %)
    dcs: dc = 252 mV        (84 %), step = 6 mV            (2 %)
    dcs: dc = 258 mV        (86 %), step = 6 mV            (2 %)
    dcs: dc = 264 mV        (88 %), step = 6 mV            (2 %)
    dcs: dc = 270 mV        (90 %), step = 6 mV            (2 %)
    dcs: dc = 276 mV        (92 %), step = 6 mV            (2 %)
    dcs: dc = 282 mV        (94 %), step = 6 mV            (2 %)
    dcs: dc = 288 mV        (96 %), step = 6 mV            (2 %)
    dcs: dc = 294 mV        (98 %), step = 6 mV            (2 %)
    dcs: dc = 300 mV       (100 %), step = 6 mV            (2 %)

Maximum value achieved for any signal of each quantity: 
V: V(net3) = 300 mV
I: I(V0:p) = 2.324 nA
DC simulation time: CPU = 16.998 ms, elapsed = 48.2211 ms.

Notice from spectre at dc = 300 mV during DC analysis `dcs', during task `MDLControl'.
    The value of parameter 'dc' has been reset to the original value 0.

Total time required for dc analysis `dcs': CPU = 16.998 ms, elapsed = 48.2669 ms.
Time accumulated: CPU = 1.55876 s, elapsed = 2.03209 s.
Peak resident memory used = 130 Mbytes.


Warning from spectre.
    WARNING (SPECTRE-17101): The value 'psf' specified for the 'checklimitdest' option will no longer be supported in future releases. Use 'spectre -h' to see other recommended values for the 'checklimitdest' option.
    WARNING (SPECTRE-17101): The value 'psf' specified for the 'checklimitdest' option will no longer be supported in future releases. Use 'spectre -h' to see other recommended values for the 'checklimitdest' option.
    WARNING (SPECTRE-17101): The value 'psf' specified for the 'checklimitdest' option will no longer be supported in future releases. Use 'spectre -h' to see other recommended values for the 'checklimitdest' option.


Opening the PSF file ./input.raw/trans.optimize ...

***********************************************************
Transient Analysis `trans-000_trans': time = (0 s -> 20 us)
***********************************************************

Notice from spectre during IC analysis, during transient analysis `trans-000_trans', during task `MDLControl'.
    GminDC = 1 pS is large enough to noticeably affect the DC solution.
        dV(I9.NM0:int_s) = 171.466 uV
        Use the `gmin_check' option to eliminate or expand this report.

DC simulation time: CPU = 999 us, elapsed = 1.02711 ms.

Opening the PSFXL file ./input.raw/trans-000_trans.tran.tran ...
Important parameter values:
    start = 0 s
    outputstart = 0 s
    stop = 20 us
    step = 20 ns
    maxstep = 400 ns
    ic = all
    useprevic = no
    skipdc = no
    reltol = 1e-03
    abstol(V) = 1 uV
    abstol(I) = 1 pA
    temp = 27 C
    tnom = 27 C
    tempeffects = all
    errpreset = moderate
    method = traponly
    lteratio = 3.5
    relref = sigglobal
    cmin = 0 F
    gmin = 1 pS


Output and IC/nodeset summary:
                 save   20      (current)
                 save   13      (voltage)
                 others 6       


Notice from spectre at time = 2.08139 ps during transient analysis `trans-000_trans', during task `MDLControl'.
    Found trapezoidal ringing on node I9.NM1:int_s.
Notice from spectre at time = 2.64495 ps during transient analysis `trans-000_trans', during task `MDLControl'.
    Found trapezoidal ringing on node I9.NM1:int_s.
Notice from spectre at time = 3.56731 ps during transient analysis `trans-000_trans', during task `MDLControl'.
    Found trapezoidal ringing on node I9.NM1:int_s.
Notice from spectre at time = 5.08956 ps during transient analysis `trans-000_trans', during task `MDLControl'.
    Found trapezoidal ringing on node I9.NM1:int_s.
Notice from spectre at time = 7.63248 ps during transient analysis `trans-000_trans', during task `MDLControl'.
    Found trapezoidal ringing on node I9.NM1:int_s.
        Further occurrences of this notice will be suppressed.

......9......8....
`AutoStop = yes'. Analysis finished at 5 us.

Number of accepted tran steps =             216

Notice from spectre during transient analysis `trans-000_trans', during task `MDLControl'.
    Trapezoidal ringing is detected during tran analysis.
        Please use method=trap for better results and performance.


Maximum value achieved for any signal of each quantity: 
V: V(I9.NM0:int_d) = 310.3 mV
I: I(V1:p) = 283.3 uA
If your circuit contains signals of the same quantity that are vastly different in size (such as high voltage circuitry combined with low voltage control circuitry), you should consider specifying global option `bin_relref=yes'.

~~~~~~~~~~~~~~~~~~~~~~~~~~~~~~~~~
Post-Transient Simulation Summary
~~~~~~~~~~~~~~~~~~~~~~~~~~~~~~~~~
   -   To further speed up simulation, consider
          add ++aps on command line
~~~~~~~~~~~~~~~~~~~~~~~~~~~~~~~~~


During simulation, the CPU load for active processors is :
         0 (21.5 %)      1 (15.4 %)      2 (8.5 %)       3 (63.4 %)
        Total: 108.8%
Initial condition solution time: CPU = 999 us, elapsed = 1.10292 ms.
Intrinsic tran analysis time:    CPU = 38.994 ms, elapsed = 74.0249 ms.
Total time required for tran analysis `trans-000_trans': CPU = 44.993 ms, elapsed = 79.808 ms.
Time accumulated: CPU = 1.63675 s, elapsed = 2.24106 s.
Peak resident memory used = 131 Mbytes.


Notice from spectre during task `MDLControl'.
    74 notices suppressed.


Opening the PSF file ./input.raw/dcs.optimize ...

**************************************************
DC Analysis `dcs-000_dcs': V1:dc = (0 V -> 300 mV)
**************************************************

Opening the PSF file ./input.raw/dcs-000_dcs.dc ...
Important parameter values:
    reltol = 1e-03
    abstol(V) = 1 uV
    abstol(I) = 1 pA
    temp = 27 C
    tnom = 27 C
    tempeffects = all
    gmindc = 1 pS

Notice from spectre at dc = 0 V during DC analysis `dcs-000_dcs', during task `MDLControl'.
    GminDC = 1 pS is large enough to noticeably affect the DC solution.
        dV(I9.NM1:int_d) = -351.295 uV
        Use the `gmin_check' option to eliminate or expand this report.
Notice from spectre at dc = 6 mV during DC analysis `dcs-000_dcs', during task `MDLControl'.
    GminDC = 1 pS is large enough to noticeably affect the DC solution.
        dV(I9.NM1:int_d) = -292.701 uV
        Use the `gmin_check' option to eliminate or expand this report.

    dcs-000_dcs: dc = 12 mV          (4 %), step = 6 mV            (2 %)
    dcs-000_dcs: dc = 18 mV          (6 %), step = 6 mV            (2 %)
    dcs-000_dcs: dc = 24 mV          (8 %), step = 6 mV            (2 %)
    dcs-000_dcs: dc = 30 mV         (10 %), step = 6 mV            (2 %)
    dcs-000_dcs: dc = 36 mV         (12 %), step = 6 mV            (2 %)
    dcs-000_dcs: dc = 42 mV         (14 %), step = 6 mV            (2 %)
    dcs-000_dcs: dc = 48 mV         (16 %), step = 6 mV            (2 %)
    dcs-000_dcs: dc = 54 mV         (18 %), step = 6 mV            (2 %)
    dcs-000_dcs: dc = 60 mV         (20 %), step = 6 mV            (2 %)
    dcs-000_dcs: dc = 66 mV         (22 %), step = 6 mV            (2 %)
    dcs-000_dcs: dc = 72 mV         (24 %), step = 6 mV            (2 %)
    dcs-000_dcs: dc = 78 mV         (26 %), step = 6 mV            (2 %)
    dcs-000_dcs: dc = 84 mV         (28 %), step = 6 mV            (2 %)
    dcs-000_dcs: dc = 90 mV         (30 %), step = 6 mV            (2 %)
    dcs-000_dcs: dc = 96 mV         (32 %), step = 6 mV            (2 %)
    dcs-000_dcs: dc = 102 mV        (34 %), step = 6 mV            (2 %)
    dcs-000_dcs: dc = 108 mV        (36 %), step = 6 mV            (2 %)
    dcs-000_dcs: dc = 114 mV        (38 %), step = 6 mV            (2 %)
    dcs-000_dcs: dc = 120 mV        (40 %), step = 6 mV            (2 %)
    dcs-000_dcs: dc = 126 mV        (42 %), step = 6 mV            (2 %)
    dcs-000_dcs: dc = 132 mV        (44 %), step = 6 mV            (2 %)
    dcs-000_dcs: dc = 138 mV        (46 %), step = 6 mV            (2 %)
    dcs-000_dcs: dc = 144 mV        (48 %), step = 6 mV            (2 %)
    dcs-000_dcs: dc = 150 mV        (50 %), step = 6 mV            (2 %)
    dcs-000_dcs: dc = 156 mV        (52 %), step = 6 mV            (2 %)
    dcs-000_dcs: dc = 162 mV        (54 %), step = 6 mV            (2 %)
    dcs-000_dcs: dc = 168 mV        (56 %), step = 6 mV            (2 %)
    dcs-000_dcs: dc = 174 mV        (58 %), step = 6 mV            (2 %)
    dcs-000_dcs: dc = 180 mV        (60 %), step = 6 mV            (2 %)
    dcs-000_dcs: dc = 186 mV        (62 %), step = 6 mV            (2 %)
    dcs-000_dcs: dc = 192 mV        (64 %), step = 6 mV            (2 %)
    dcs-000_dcs: dc = 198 mV        (66 %), step = 6 mV            (2 %)
    dcs-000_dcs: dc = 204 mV        (68 %), step = 6 mV            (2 %)
    dcs-000_dcs: dc = 210 mV        (70 %), step = 6 mV            (2 %)
    dcs-000_dcs: dc = 216 mV        (72 %), step = 6 mV            (2 %)
    dcs-000_dcs: dc = 222 mV        (74 %), step = 6 mV            (2 %)
    dcs-000_dcs: dc = 228 mV        (76 %), step = 6 mV            (2 %)
    dcs-000_dcs: dc = 234 mV        (78 %), step = 6 mV            (2 %)
    dcs-000_dcs: dc = 240 mV        (80 %), step = 6 mV            (2 %)
    dcs-000_dcs: dc = 246 mV        (82 %), step = 6 mV            (2 %)
    dcs-000_dcs: dc = 252 mV        (84 %), step = 6 mV            (2 %)
    dcs-000_dcs: dc = 258 mV        (86 %), step = 6 mV            (2 %)
    dcs-000_dcs: dc = 264 mV        (88 %), step = 6 mV            (2 %)
    dcs-000_dcs: dc = 270 mV        (90 %), step = 6 mV            (2 %)
    dcs-000_dcs: dc = 276 mV        (92 %), step = 6 mV            (2 %)
    dcs-000_dcs: dc = 282 mV        (94 %), step = 6 mV            (2 %)
    dcs-000_dcs: dc = 288 mV        (96 %), step = 6 mV            (2 %)
    dcs-000_dcs: dc = 294 mV        (98 %), step = 6 mV            (2 %)
    dcs-000_dcs: dc = 300 mV       (100 %), step = 6 mV            (2 %)

Maximum value achieved for any signal of each quantity: 
V: V(net3) = 300 mV
I: I(V0:p) = 857.6 pA
DC simulation time: CPU = 23.996 ms, elapsed = 60.8921 ms.

Notice from spectre at dc = 300 mV during DC analysis `dcs-000_dcs', during task `MDLControl'.
    The value of parameter 'dc' has been reset to the original value 0.

Total time required for dc analysis `dcs-000_dcs': CPU = 23.996 ms, elapsed = 60.94 ms.
Time accumulated: CPU = 1.66575 s, elapsed = 2.37147 s.
Peak resident memory used = 131 Mbytes.


Warning from spectre.
    WARNING (SPECTRE-17101): The value 'psf' specified for the 'checklimitdest' option will no longer be supported in future releases. Use 'spectre -h' to see other recommended values for the 'checklimitdest' option.


***********************************************************
Transient Analysis `trans-000_trans': time = (0 s -> 20 us)
***********************************************************

Notice from spectre during IC analysis, during transient analysis `trans-000_trans', during task `MDLControl'.
    GminDC = 1 pS is large enough to noticeably affect the DC solution.
        dV(I9.NM0:int_s) = 171.466 uV
        Use the `gmin_check' option to eliminate or expand this report.

DC simulation time: CPU = 1 ms, elapsed = 553.846 us.

Opening the PSFXL file ./input.raw/trans-000_trans.tran.tran ...
Important parameter values:
    start = 0 s
    outputstart = 0 s
    stop = 20 us
    step = 20 ns
    maxstep = 400 ns
    ic = all
    useprevic = no
    skipdc = no
    reltol = 1e-03
    abstol(V) = 1 uV
    abstol(I) = 1 pA
    temp = 27 C
    tnom = 27 C
    tempeffects = all
    errpreset = moderate
    method = traponly
    lteratio = 3.5
    relref = sigglobal
    cmin = 0 F
    gmin = 1 pS


Output and IC/nodeset summary:
                 save   20      (current)
                 save   13      (voltage)
                 others 6       


Notice from spectre at time = 2.08215 ps during transient analysis `trans-000_trans', during task `MDLControl'.
    Found trapezoidal ringing on node I9.NM1:int_s.
Notice from spectre at time = 2.64613 ps during transient analysis `trans-000_trans', during task `MDLControl'.
    Found trapezoidal ringing on node I9.NM1:int_s.
Notice from spectre at time = 3.56913 ps during transient analysis `trans-000_trans', during task `MDLControl'.
    Found trapezoidal ringing on node I9.NM1:int_s.
Notice from spectre at time = 5.09234 ps during transient analysis `trans-000_trans', during task `MDLControl'.
    Found trapezoidal ringing on node I9.NM1:int_s.
Notice from spectre at time = 7.63669 ps during transient analysis `trans-000_trans', during task `MDLControl'.
    Found trapezoidal ringing on node I9.NM1:int_s.
        Further occurrences of this notice will be suppressed.

......9......8....
`AutoStop = yes'. Analysis finished at 5 us.

Number of accepted tran steps =             217

Notice from spectre during transient analysis `trans-000_trans', during task `MDLControl'.
    Trapezoidal ringing is detected during tran analysis.
        Please use method=trap for better results and performance.


Maximum value achieved for any signal of each quantity: 
V: V(I9.NM0:int_d) = 310.5 mV
I: I(V1:p) = 290.3 uA
If your circuit contains signals of the same quantity that are vastly different in size (such as high voltage circuitry combined with low voltage control circuitry), you should consider specifying global option `bin_relref=yes'.

~~~~~~~~~~~~~~~~~~~~~~~~~~~~~~~~~
Post-Transient Simulation Summary
~~~~~~~~~~~~~~~~~~~~~~~~~~~~~~~~~
   -   To further speed up simulation, consider
          add ++aps on command line
~~~~~~~~~~~~~~~~~~~~~~~~~~~~~~~~~


During simulation, the CPU load for active processors is :
         0 (23.4 %)      1 (17.1 %)      2 (8.9 %)       3 (58.4 %)
        Total: 107.8%
Initial condition solution time: CPU = 1 ms, elapsed = 593.901 us.
Intrinsic tran analysis time:    CPU = 30.996 ms, elapsed = 67.131 ms.
Total time required for tran analysis `trans-000_trans': CPU = 33.996 ms, elapsed = 70.1051 ms.
Time accumulated: CPU = 1.70874 s, elapsed = 2.45097 s.
Peak resident memory used = 131 Mbytes.


Notice from spectre during task `MDLControl'.
    76 notices suppressed.


**************************************************
DC Analysis `dcs-000_dcs': V1:dc = (0 V -> 300 mV)
**************************************************

Opening the PSF file ./input.raw/dcs-000_dcs.dc ...
Important parameter values:
    reltol = 1e-03
    abstol(V) = 1 uV
    abstol(I) = 1 pA
    temp = 27 C
    tnom = 27 C
    tempeffects = all
    gmindc = 1 pS

Notice from spectre at dc = 0 V during DC analysis `dcs-000_dcs', during task `MDLControl'.
    GminDC = 1 pS is large enough to noticeably affect the DC solution.
        dV(I9.NM1:int_d) = -351.294 uV
        Use the `gmin_check' option to eliminate or expand this report.
Notice from spectre at dc = 6 mV during DC analysis `dcs-000_dcs', during task `MDLControl'.
    GminDC = 1 pS is large enough to noticeably affect the DC solution.
        dV(I9.NM1:int_d) = -292.7 uV
        Use the `gmin_check' option to eliminate or expand this report.

    dcs-000_dcs: dc = 12 mV          (4 %), step = 6 mV            (2 %)
    dcs-000_dcs: dc = 18 mV          (6 %), step = 6 mV            (2 %)
    dcs-000_dcs: dc = 24 mV          (8 %), step = 6 mV            (2 %)
    dcs-000_dcs: dc = 30 mV         (10 %), step = 6 mV            (2 %)
    dcs-000_dcs: dc = 36 mV         (12 %), step = 6 mV            (2 %)
    dcs-000_dcs: dc = 42 mV         (14 %), step = 6 mV            (2 %)
    dcs-000_dcs: dc = 48 mV         (16 %), step = 6 mV            (2 %)
    dcs-000_dcs: dc = 54 mV         (18 %), step = 6 mV            (2 %)
    dcs-000_dcs: dc = 60 mV         (20 %), step = 6 mV            (2 %)
    dcs-000_dcs: dc = 66 mV         (22 %), step = 6 mV            (2 %)
    dcs-000_dcs: dc = 72 mV         (24 %), step = 6 mV            (2 %)
    dcs-000_dcs: dc = 78 mV         (26 %), step = 6 mV            (2 %)
    dcs-000_dcs: dc = 84 mV         (28 %), step = 6 mV            (2 %)
    dcs-000_dcs: dc = 90 mV         (30 %), step = 6 mV            (2 %)
    dcs-000_dcs: dc = 96 mV         (32 %), step = 6 mV            (2 %)
    dcs-000_dcs: dc = 102 mV        (34 %), step = 6 mV            (2 %)
    dcs-000_dcs: dc = 108 mV        (36 %), step = 6 mV            (2 %)
    dcs-000_dcs: dc = 114 mV        (38 %), step = 6 mV            (2 %)
    dcs-000_dcs: dc = 120 mV        (40 %), step = 6 mV            (2 %)
    dcs-000_dcs: dc = 126 mV        (42 %), step = 6 mV            (2 %)
    dcs-000_dcs: dc = 132 mV        (44 %), step = 6 mV            (2 %)
    dcs-000_dcs: dc = 138 mV        (46 %), step = 6 mV            (2 %)
    dcs-000_dcs: dc = 144 mV        (48 %), step = 6 mV            (2 %)
    dcs-000_dcs: dc = 150 mV        (50 %), step = 6 mV            (2 %)
    dcs-000_dcs: dc = 156 mV        (52 %), step = 6 mV            (2 %)
    dcs-000_dcs: dc = 162 mV        (54 %), step = 6 mV            (2 %)
    dcs-000_dcs: dc = 168 mV        (56 %), step = 6 mV            (2 %)
    dcs-000_dcs: dc = 174 mV        (58 %), step = 6 mV            (2 %)
    dcs-000_dcs: dc = 180 mV        (60 %), step = 6 mV            (2 %)
    dcs-000_dcs: dc = 186 mV        (62 %), step = 6 mV            (2 %)
    dcs-000_dcs: dc = 192 mV        (64 %), step = 6 mV            (2 %)
    dcs-000_dcs: dc = 198 mV        (66 %), step = 6 mV            (2 %)
    dcs-000_dcs: dc = 204 mV        (68 %), step = 6 mV            (2 %)
    dcs-000_dcs: dc = 210 mV        (70 %), step = 6 mV            (2 %)
    dcs-000_dcs: dc = 216 mV        (72 %), step = 6 mV            (2 %)
    dcs-000_dcs: dc = 222 mV        (74 %), step = 6 mV            (2 %)
    dcs-000_dcs: dc = 228 mV        (76 %), step = 6 mV            (2 %)
    dcs-000_dcs: dc = 234 mV        (78 %), step = 6 mV            (2 %)
    dcs-000_dcs: dc = 240 mV        (80 %), step = 6 mV            (2 %)
    dcs-000_dcs: dc = 246 mV        (82 %), step = 6 mV            (2 %)
    dcs-000_dcs: dc = 252 mV        (84 %), step = 6 mV            (2 %)
    dcs-000_dcs: dc = 258 mV        (86 %), step = 6 mV            (2 %)
    dcs-000_dcs: dc = 264 mV        (88 %), step = 6 mV            (2 %)
    dcs-000_dcs: dc = 270 mV        (90 %), step = 6 mV            (2 %)
    dcs-000_dcs: dc = 276 mV        (92 %), step = 6 mV            (2 %)
    dcs-000_dcs: dc = 282 mV        (94 %), step = 6 mV            (2 %)
    dcs-000_dcs: dc = 288 mV        (96 %), step = 6 mV            (2 %)
    dcs-000_dcs: dc = 294 mV        (98 %), step = 6 mV            (2 %)
    dcs-000_dcs: dc = 300 mV       (100 %), step = 6 mV            (2 %)

Maximum value achieved for any signal of each quantity: 
V: V(net3) = 300 mV
I: I(V0:p) = 888.1 pA
DC simulation time: CPU = 17.998 ms, elapsed = 51.1701 ms.

Notice from spectre at dc = 300 mV during DC analysis `dcs-000_dcs', during task `MDLControl'.
    The value of parameter 'dc' has been reset to the original value 0.

Total time required for dc analysis `dcs-000_dcs': CPU = 17.998 ms, elapsed = 51.2152 ms.
Time accumulated: CPU = 1.72774 s, elapsed = 2.50291 s.
Peak resident memory used = 131 Mbytes.


Warning from spectre.
    WARNING (SPECTRE-17101): The value 'psf' specified for the 'checklimitdest' option will no longer be supported in future releases. Use 'spectre -h' to see other recommended values for the 'checklimitdest' option.
    WARNING (SPECTRE-17101): The value 'psf' specified for the 'checklimitdest' option will no longer be supported in future releases. Use 'spectre -h' to see other recommended values for the 'checklimitdest' option.


***********************************************************
Transient Analysis `trans-000_trans': time = (0 s -> 20 us)
***********************************************************

Notice from spectre during IC analysis, during transient analysis `trans-000_trans', during task `MDLControl'.
    GminDC = 1 pS is large enough to noticeably affect the DC solution.
        dV(I9.NM0:int_s) = 169.75 uV
        Use the `gmin_check' option to eliminate or expand this report.

DC simulation time: CPU = 0 s, elapsed = 524.044 us.

Opening the PSFXL file ./input.raw/trans-000_trans.tran.tran ...
Important parameter values:
    start = 0 s
    outputstart = 0 s
    stop = 20 us
    step = 20 ns
    maxstep = 400 ns
    ic = all
    useprevic = no
    skipdc = no
    reltol = 1e-03
    abstol(V) = 1 uV
    abstol(I) = 1 pA
    temp = 27 C
    tnom = 27 C
    tempeffects = all
    errpreset = moderate
    method = traponly
    lteratio = 3.5
    relref = sigglobal
    cmin = 0 F
    gmin = 1 pS


Output and IC/nodeset summary:
                 save   20      (current)
                 save   13      (voltage)
                 others 6       


Notice from spectre at time = 2.07737 ps during transient analysis `trans-000_trans', during task `MDLControl'.
    Found trapezoidal ringing on node I9.NM1:int_s.
Notice from spectre at time = 2.64154 ps during transient analysis `trans-000_trans', during task `MDLControl'.
    Found trapezoidal ringing on node I9.NM1:int_s.
Notice from spectre at time = 3.56832 ps during transient analysis `trans-000_trans', during task `MDLControl'.
    Found trapezoidal ringing on node I9.NM1:int_s.
Notice from spectre at time = 5.1043 ps during transient analysis `trans-000_trans', during task `MDLControl'.
    Found trapezoidal ringing on node I9.NM1:int_s.
Notice from spectre at time = 7.68173 ps during transient analysis `trans-000_trans', during task `MDLControl'.
    Found trapezoidal ringing on node I9.NM1:int_s.
        Further occurrences of this notice will be suppressed.

......9......8....
`AutoStop = yes'. Analysis finished at 5 us.

Number of accepted tran steps =             216

Notice from spectre during transient analysis `trans-000_trans', during task `MDLControl'.
    Trapezoidal ringing is detected during tran analysis.
        Please use method=trap for better results and performance.


Maximum value achieved for any signal of each quantity: 
V: V(I9.NM0:int_d) = 310.3 mV
I: I(V1:p) = 285 uA
If your circuit contains signals of the same quantity that are vastly different in size (such as high voltage circuitry combined with low voltage control circuitry), you should consider specifying global option `bin_relref=yes'.

~~~~~~~~~~~~~~~~~~~~~~~~~~~~~~~~~
Post-Transient Simulation Summary
~~~~~~~~~~~~~~~~~~~~~~~~~~~~~~~~~
   -   To further speed up simulation, consider
          add ++aps on command line
~~~~~~~~~~~~~~~~~~~~~~~~~~~~~~~~~


During simulation, the CPU load for active processors is :
         0 (24.5 %)      1 (17.3 %)      2 (10.0 %)      3 (58.0 %)
        Total: 109.9%
Initial condition solution time: CPU = 0 s, elapsed = 563.86 us.
Intrinsic tran analysis time:    CPU = 29.996 ms, elapsed = 64.193 ms.
Total time required for tran analysis `trans-000_trans': CPU = 33.994 ms, elapsed = 67.153 ms.
Time accumulated: CPU = 1.77673 s, elapsed = 2.58544 s.
Peak resident memory used = 131 Mbytes.


Notice from spectre during task `MDLControl'.
    74 notices suppressed.


**************************************************
DC Analysis `dcs-000_dcs': V1:dc = (0 V -> 300 mV)
**************************************************

Opening the PSF file ./input.raw/dcs-000_dcs.dc ...
Important parameter values:
    reltol = 1e-03
    abstol(V) = 1 uV
    abstol(I) = 1 pA
    temp = 27 C
    tnom = 27 C
    tempeffects = all
    gmindc = 1 pS

Notice from spectre at dc = 0 V during DC analysis `dcs-000_dcs', during task `MDLControl'.
    GminDC = 1 pS is large enough to noticeably affect the DC solution.
        dV(I9.NM1:int_d) = -347.647 uV
        Use the `gmin_check' option to eliminate or expand this report.
Notice from spectre at dc = 6 mV during DC analysis `dcs-000_dcs', during task `MDLControl'.
    GminDC = 1 pS is large enough to noticeably affect the DC solution.
        dV(I9.NM1:int_d) = -289.593 uV
        Use the `gmin_check' option to eliminate or expand this report.

    dcs-000_dcs: dc = 12 mV          (4 %), step = 6 mV            (2 %)
    dcs-000_dcs: dc = 18 mV          (6 %), step = 6 mV            (2 %)
    dcs-000_dcs: dc = 24 mV          (8 %), step = 6 mV            (2 %)
    dcs-000_dcs: dc = 30 mV         (10 %), step = 6 mV            (2 %)
    dcs-000_dcs: dc = 36 mV         (12 %), step = 6 mV            (2 %)
    dcs-000_dcs: dc = 42 mV         (14 %), step = 6 mV            (2 %)
    dcs-000_dcs: dc = 48 mV         (16 %), step = 6 mV            (2 %)
    dcs-000_dcs: dc = 54 mV         (18 %), step = 6 mV            (2 %)
    dcs-000_dcs: dc = 60 mV         (20 %), step = 6 mV            (2 %)
    dcs-000_dcs: dc = 66 mV         (22 %), step = 6 mV            (2 %)
    dcs-000_dcs: dc = 72 mV         (24 %), step = 6 mV            (2 %)
    dcs-000_dcs: dc = 78 mV         (26 %), step = 6 mV            (2 %)
    dcs-000_dcs: dc = 84 mV         (28 %), step = 6 mV            (2 %)
    dcs-000_dcs: dc = 90 mV         (30 %), step = 6 mV            (2 %)
    dcs-000_dcs: dc = 96 mV         (32 %), step = 6 mV            (2 %)
    dcs-000_dcs: dc = 102 mV        (34 %), step = 6 mV            (2 %)
    dcs-000_dcs: dc = 108 mV        (36 %), step = 6 mV            (2 %)
    dcs-000_dcs: dc = 114 mV        (38 %), step = 6 mV            (2 %)
    dcs-000_dcs: dc = 120 mV        (40 %), step = 6 mV            (2 %)
    dcs-000_dcs: dc = 126 mV        (42 %), step = 6 mV            (2 %)
    dcs-000_dcs: dc = 132 mV        (44 %), step = 6 mV            (2 %)
    dcs-000_dcs: dc = 138 mV        (46 %), step = 6 mV            (2 %)
    dcs-000_dcs: dc = 144 mV        (48 %), step = 6 mV            (2 %)
    dcs-000_dcs: dc = 150 mV        (50 %), step = 6 mV            (2 %)
    dcs-000_dcs: dc = 156 mV        (52 %), step = 6 mV            (2 %)
    dcs-000_dcs: dc = 162 mV        (54 %), step = 6 mV            (2 %)
    dcs-000_dcs: dc = 168 mV        (56 %), step = 6 mV            (2 %)
    dcs-000_dcs: dc = 174 mV        (58 %), step = 6 mV            (2 %)
    dcs-000_dcs: dc = 180 mV        (60 %), step = 6 mV            (2 %)
    dcs-000_dcs: dc = 186 mV        (62 %), step = 6 mV            (2 %)
    dcs-000_dcs: dc = 192 mV        (64 %), step = 6 mV            (2 %)
    dcs-000_dcs: dc = 198 mV        (66 %), step = 6 mV            (2 %)
    dcs-000_dcs: dc = 204 mV        (68 %), step = 6 mV            (2 %)
    dcs-000_dcs: dc = 210 mV        (70 %), step = 6 mV            (2 %)
    dcs-000_dcs: dc = 216 mV        (72 %), step = 6 mV            (2 %)
    dcs-000_dcs: dc = 222 mV        (74 %), step = 6 mV            (2 %)
    dcs-000_dcs: dc = 228 mV        (76 %), step = 6 mV            (2 %)
    dcs-000_dcs: dc = 234 mV        (78 %), step = 6 mV            (2 %)
    dcs-000_dcs: dc = 240 mV        (80 %), step = 6 mV            (2 %)
    dcs-000_dcs: dc = 246 mV        (82 %), step = 6 mV            (2 %)
    dcs-000_dcs: dc = 252 mV        (84 %), step = 6 mV            (2 %)
    dcs-000_dcs: dc = 258 mV        (86 %), step = 6 mV            (2 %)
    dcs-000_dcs: dc = 264 mV        (88 %), step = 6 mV            (2 %)
    dcs-000_dcs: dc = 270 mV        (90 %), step = 6 mV            (2 %)
    dcs-000_dcs: dc = 276 mV        (92 %), step = 6 mV            (2 %)
    dcs-000_dcs: dc = 282 mV        (94 %), step = 6 mV            (2 %)
    dcs-000_dcs: dc = 288 mV        (96 %), step = 6 mV            (2 %)
    dcs-000_dcs: dc = 294 mV        (98 %), step = 6 mV            (2 %)
    dcs-000_dcs: dc = 300 mV       (100 %), step = 6 mV            (2 %)

Maximum value achieved for any signal of each quantity: 
V: V(net3) = 300 mV
I: I(V0:p) = 857.6 pA
DC simulation time: CPU = 18.997 ms, elapsed = 51.3 ms.

Notice from spectre at dc = 300 mV during DC analysis `dcs-000_dcs', during task `MDLControl'.
    The value of parameter 'dc' has been reset to the original value 0.

Total time required for dc analysis `dcs-000_dcs': CPU = 18.997 ms, elapsed = 51.3589 ms.
Time accumulated: CPU = 1.79573 s, elapsed = 2.63759 s.
Peak resident memory used = 131 Mbytes.


Warning from spectre.
    WARNING (SPECTRE-17101): The value 'psf' specified for the 'checklimitdest' option will no longer be supported in future releases. Use 'spectre -h' to see other recommended values for the 'checklimitdest' option.
    WARNING (SPECTRE-17101): The value 'psf' specified for the 'checklimitdest' option will no longer be supported in future releases. Use 'spectre -h' to see other recommended values for the 'checklimitdest' option.


***********************************************************
Transient Analysis `trans-000_trans': time = (0 s -> 20 us)
***********************************************************

Notice from spectre during IC analysis, during transient analysis `trans-000_trans', during task `MDLControl'.
    GminDC = 1 pS is large enough to noticeably affect the DC solution.
        dV(I9.NM0:int_s) = 171.465 uV
        Use the `gmin_check' option to eliminate or expand this report.

DC simulation time: CPU = 0 s, elapsed = 528.097 us.

Opening the PSFXL file ./input.raw/trans-000_trans.tran.tran ...
Important parameter values:
    start = 0 s
    outputstart = 0 s
    stop = 20 us
    step = 20 ns
    maxstep = 400 ns
    ic = all
    useprevic = no
    skipdc = no
    reltol = 1e-03
    abstol(V) = 1 uV
    abstol(I) = 1 pA
    temp = 27 C
    tnom = 27 C
    tempeffects = all
    errpreset = moderate
    method = traponly
    lteratio = 3.5
    relref = sigglobal
    cmin = 0 F
    gmin = 1 pS


Output and IC/nodeset summary:
                 save   20      (current)
                 save   13      (voltage)
                 others 6       


Notice from spectre at time = 2.08139 ps during transient analysis `trans-000_trans', during task `MDLControl'.
    Found trapezoidal ringing on node I9.NM1:int_s.
Notice from spectre at time = 2.64496 ps during transient analysis `trans-000_trans', during task `MDLControl'.
    Found trapezoidal ringing on node I9.NM1:int_s.
Notice from spectre at time = 3.56732 ps during transient analysis `trans-000_trans', during task `MDLControl'.
    Found trapezoidal ringing on node I9.NM1:int_s.
Notice from spectre at time = 5.08958 ps during transient analysis `trans-000_trans', during task `MDLControl'.
    Found trapezoidal ringing on node I9.NM1:int_s.
Notice from spectre at time = 7.63251 ps during transient analysis `trans-000_trans', during task `MDLControl'.
    Found trapezoidal ringing on node I9.NM1:int_s.
        Further occurrences of this notice will be suppressed.

......9......8....
`AutoStop = yes'. Analysis finished at 5 us.

Number of accepted tran steps =             218

Notice from spectre during transient analysis `trans-000_trans', during task `MDLControl'.
    Trapezoidal ringing is detected during tran analysis.
        Please use method=trap for better results and performance.


Maximum value achieved for any signal of each quantity: 
V: V(I9.NM0:int_d) = 310.3 mV
I: I(V1:p) = 284.6 uA
If your circuit contains signals of the same quantity that are vastly different in size (such as high voltage circuitry combined with low voltage control circuitry), you should consider specifying global option `bin_relref=yes'.

~~~~~~~~~~~~~~~~~~~~~~~~~~~~~~~~~
Post-Transient Simulation Summary
~~~~~~~~~~~~~~~~~~~~~~~~~~~~~~~~~
   -   To further speed up simulation, consider
          add ++aps on command line
~~~~~~~~~~~~~~~~~~~~~~~~~~~~~~~~~


During simulation, the CPU load for active processors is :
         0 (27.2 %)      1 (17.9 %)      2 (10.6 %)      3 (55.4 %)
        Total: 111.0%
Initial condition solution time: CPU = 0 s, elapsed = 566.959 us.
Intrinsic tran analysis time:    CPU = 31.996 ms, elapsed = 90.2851 ms.
Total time required for tran analysis `trans-000_trans': CPU = 33.995 ms, elapsed = 93.1332 ms.
Time accumulated: CPU = 1.84472 s, elapsed = 2.74637 s.
Peak resident memory used = 131 Mbytes.


Notice from spectre during task `MDLControl'.
    76 notices suppressed.


**************************************************
DC Analysis `dcs-000_dcs': V1:dc = (0 V -> 300 mV)
**************************************************

Opening the PSF file ./input.raw/dcs-000_dcs.dc ...
Important parameter values:
    reltol = 1e-03
    abstol(V) = 1 uV
    abstol(I) = 1 pA
    temp = 27 C
    tnom = 27 C
    tempeffects = all
    gmindc = 1 pS

Notice from spectre at dc = 0 V during DC analysis `dcs-000_dcs', during task `MDLControl'.
    GminDC = 1 pS is large enough to noticeably affect the DC solution.
        dV(I9.NM1:int_d) = -351.298 uV
        Use the `gmin_check' option to eliminate or expand this report.
Notice from spectre at dc = 6 mV during DC analysis `dcs-000_dcs', during task `MDLControl'.
    GminDC = 1 pS is large enough to noticeably affect the DC solution.
        dV(I9.NM1:int_d) = -292.702 uV
        Use the `gmin_check' option to eliminate or expand this report.

    dcs-000_dcs: dc = 12 mV          (4 %), step = 6 mV            (2 %)
    dcs-000_dcs: dc = 18 mV          (6 %), step = 6 mV            (2 %)
    dcs-000_dcs: dc = 24 mV          (8 %), step = 6 mV            (2 %)
    dcs-000_dcs: dc = 30 mV         (10 %), step = 6 mV            (2 %)
    dcs-000_dcs: dc = 36 mV         (12 %), step = 6 mV            (2 %)
    dcs-000_dcs: dc = 42 mV         (14 %), step = 6 mV            (2 %)
    dcs-000_dcs: dc = 48 mV         (16 %), step = 6 mV            (2 %)
    dcs-000_dcs: dc = 54 mV         (18 %), step = 6 mV            (2 %)
    dcs-000_dcs: dc = 60 mV         (20 %), step = 6 mV            (2 %)
    dcs-000_dcs: dc = 66 mV         (22 %), step = 6 mV            (2 %)
    dcs-000_dcs: dc = 72 mV         (24 %), step = 6 mV            (2 %)
    dcs-000_dcs: dc = 78 mV         (26 %), step = 6 mV            (2 %)
    dcs-000_dcs: dc = 84 mV         (28 %), step = 6 mV            (2 %)
    dcs-000_dcs: dc = 90 mV         (30 %), step = 6 mV            (2 %)
    dcs-000_dcs: dc = 96 mV         (32 %), step = 6 mV            (2 %)
    dcs-000_dcs: dc = 102 mV        (34 %), step = 6 mV            (2 %)
    dcs-000_dcs: dc = 108 mV        (36 %), step = 6 mV            (2 %)
    dcs-000_dcs: dc = 114 mV        (38 %), step = 6 mV            (2 %)
    dcs-000_dcs: dc = 120 mV        (40 %), step = 6 mV            (2 %)
    dcs-000_dcs: dc = 126 mV        (42 %), step = 6 mV            (2 %)
    dcs-000_dcs: dc = 132 mV        (44 %), step = 6 mV            (2 %)
    dcs-000_dcs: dc = 138 mV        (46 %), step = 6 mV            (2 %)
    dcs-000_dcs: dc = 144 mV        (48 %), step = 6 mV            (2 %)
    dcs-000_dcs: dc = 150 mV        (50 %), step = 6 mV            (2 %)
    dcs-000_dcs: dc = 156 mV        (52 %), step = 6 mV            (2 %)
    dcs-000_dcs: dc = 162 mV        (54 %), step = 6 mV            (2 %)
    dcs-000_dcs: dc = 168 mV        (56 %), step = 6 mV            (2 %)
    dcs-000_dcs: dc = 174 mV        (58 %), step = 6 mV            (2 %)
    dcs-000_dcs: dc = 180 mV        (60 %), step = 6 mV            (2 %)
    dcs-000_dcs: dc = 186 mV        (62 %), step = 6 mV            (2 %)
    dcs-000_dcs: dc = 192 mV        (64 %), step = 6 mV            (2 %)
    dcs-000_dcs: dc = 198 mV        (66 %), step = 6 mV            (2 %)
    dcs-000_dcs: dc = 204 mV        (68 %), step = 6 mV            (2 %)
    dcs-000_dcs: dc = 210 mV        (70 %), step = 6 mV            (2 %)
    dcs-000_dcs: dc = 216 mV        (72 %), step = 6 mV            (2 %)
    dcs-000_dcs: dc = 222 mV        (74 %), step = 6 mV            (2 %)
    dcs-000_dcs: dc = 228 mV        (76 %), step = 6 mV            (2 %)
    dcs-000_dcs: dc = 234 mV        (78 %), step = 6 mV            (2 %)
    dcs-000_dcs: dc = 240 mV        (80 %), step = 6 mV            (2 %)
    dcs-000_dcs: dc = 246 mV        (82 %), step = 6 mV            (2 %)
    dcs-000_dcs: dc = 252 mV        (84 %), step = 6 mV            (2 %)
    dcs-000_dcs: dc = 258 mV        (86 %), step = 6 mV            (2 %)
    dcs-000_dcs: dc = 264 mV        (88 %), step = 6 mV            (2 %)
    dcs-000_dcs: dc = 270 mV        (90 %), step = 6 mV            (2 %)
    dcs-000_dcs: dc = 276 mV        (92 %), step = 6 mV            (2 %)
    dcs-000_dcs: dc = 282 mV        (94 %), step = 6 mV            (2 %)
    dcs-000_dcs: dc = 288 mV        (96 %), step = 6 mV            (2 %)
    dcs-000_dcs: dc = 294 mV        (98 %), step = 6 mV            (2 %)
    dcs-000_dcs: dc = 300 mV       (100 %), step = 6 mV            (2 %)

Maximum value achieved for any signal of each quantity: 
V: V(net3) = 300 mV
I: I(V0:p) = 689.3 pA
DC simulation time: CPU = 17.996 ms, elapsed = 48.815 ms.

Notice from spectre at dc = 300 mV during DC analysis `dcs-000_dcs', during task `MDLControl'.
    The value of parameter 'dc' has been reset to the original value 0.

Total time required for dc analysis `dcs-000_dcs': CPU = 17.996 ms, elapsed = 48.8589 ms.
Time accumulated: CPU = 1.86272 s, elapsed = 2.79589 s.
Peak resident memory used = 131 Mbytes.


Warning from spectre.
    WARNING (SPECTRE-17101): The value 'psf' specified for the 'checklimitdest' option will no longer be supported in future releases. Use 'spectre -h' to see other recommended values for the 'checklimitdest' option.
    WARNING (SPECTRE-17101): The value 'psf' specified for the 'checklimitdest' option will no longer be supported in future releases. Use 'spectre -h' to see other recommended values for the 'checklimitdest' option.


***********************************************************
Transient Analysis `trans-000_trans': time = (0 s -> 20 us)
***********************************************************

Notice from spectre during IC analysis, during transient analysis `trans-000_trans', during task `MDLControl'.
    GminDC = 1 pS is large enough to noticeably affect the DC solution.
        dV(I9.NM0:int_s) = 172.929 uV
        Use the `gmin_check' option to eliminate or expand this report.

DC simulation time: CPU = 1 ms, elapsed = 569.105 us.

Opening the PSFXL file ./input.raw/trans-000_trans.tran.tran ...
Important parameter values:
    start = 0 s
    outputstart = 0 s
    stop = 20 us
    step = 20 ns
    maxstep = 400 ns
    ic = all
    useprevic = no
    skipdc = no
    reltol = 1e-03
    abstol(V) = 1 uV
    abstol(I) = 1 pA
    temp = 27 C
    tnom = 27 C
    tempeffects = all
    errpreset = moderate
    method = traponly
    lteratio = 3.5
    relref = sigglobal
    cmin = 0 F
    gmin = 1 pS


Output and IC/nodeset summary:
                 save   20      (current)
                 save   13      (voltage)
                 others 6       


Notice from spectre at time = 2.07196 ps during transient analysis `trans-000_trans', during task `MDLControl'.
    Found trapezoidal ringing on node I9.NM1:int_s.
Notice from spectre at time = 2.63013 ps during transient analysis `trans-000_trans', during task `MDLControl'.
    Found trapezoidal ringing on node I9.NM1:int_s.
Notice from spectre at time = 3.54499 ps during transient analysis `trans-000_trans', during task `MDLControl'.
    Found trapezoidal ringing on node I9.NM1:int_s.
Notice from spectre at time = 5.05783 ps during transient analysis `trans-000_trans', during task `MDLControl'.
    Found trapezoidal ringing on node I9.NM1:int_s.
Notice from spectre at time = 7.59041 ps during transient analysis `trans-000_trans', during task `MDLControl'.
    Found trapezoidal ringing on node I9.NM1:int_s.
        Further occurrences of this notice will be suppressed.

......9......8....
`AutoStop = yes'. Analysis finished at 5 us.

Number of accepted tran steps =             217

Notice from spectre during transient analysis `trans-000_trans', during task `MDLControl'.
    Trapezoidal ringing is detected during tran analysis.
        Please use method=trap for better results and performance.


Maximum value achieved for any signal of each quantity: 
V: V(I9.NM0:int_d) = 310.3 mV
I: I(V1:p) = 284 uA
If your circuit contains signals of the same quantity that are vastly different in size (such as high voltage circuitry combined with low voltage control circuitry), you should consider specifying global option `bin_relref=yes'.

~~~~~~~~~~~~~~~~~~~~~~~~~~~~~~~~~
Post-Transient Simulation Summary
~~~~~~~~~~~~~~~~~~~~~~~~~~~~~~~~~
   -   To further speed up simulation, consider
          add ++aps on command line
~~~~~~~~~~~~~~~~~~~~~~~~~~~~~~~~~


During simulation, the CPU load for active processors is :
         0 (28.2 %)      1 (19.9 %)      2 (10.4 %)      3 (53.0 %)
        Total: 111.5%
Initial condition solution time: CPU = 1 ms, elapsed = 608.921 us.
Intrinsic tran analysis time:    CPU = 30.995 ms, elapsed = 66.1278 ms.
Total time required for tran analysis `trans-000_trans': CPU = 34.995 ms, elapsed = 69.8359 ms.
Time accumulated: CPU = 1.91371 s, elapsed = 2.88146 s.
Peak resident memory used = 131 Mbytes.


Notice from spectre during task `MDLControl'.
    76 notices suppressed.


**************************************************
DC Analysis `dcs-000_dcs': V1:dc = (0 V -> 300 mV)
**************************************************

Opening the PSF file ./input.raw/dcs-000_dcs.dc ...
Important parameter values:
    reltol = 1e-03
    abstol(V) = 1 uV
    abstol(I) = 1 pA
    temp = 27 C
    tnom = 27 C
    tempeffects = all
    gmindc = 1 pS

Notice from spectre at dc = 0 V during DC analysis `dcs-000_dcs', during task `MDLControl'.
    GminDC = 1 pS is large enough to noticeably affect the DC solution.
        dV(I9.NM1:int_d) = -357.696 uV
        Use the `gmin_check' option to eliminate or expand this report.
Notice from spectre at dc = 6 mV during DC analysis `dcs-000_dcs', during task `MDLControl'.
    GminDC = 1 pS is large enough to noticeably affect the DC solution.
        dV(I9.NM1:int_d) = -297.929 uV
        Use the `gmin_check' option to eliminate or expand this report.
Notice from spectre at dc = 12 mV during DC analysis `dcs-000_dcs', during task `MDLControl'.
    GminDC = 1 pS is large enough to noticeably affect the DC solution.
        dV(I9.NM1:int_d) = -246.634 uV
        Use the `gmin_check' option to eliminate or expand this report.

    dcs-000_dcs: dc = 12 mV          (4 %), step = 6 mV            (2 %)
    dcs-000_dcs: dc = 18 mV          (6 %), step = 6 mV            (2 %)
    dcs-000_dcs: dc = 24 mV          (8 %), step = 6 mV            (2 %)
    dcs-000_dcs: dc = 30 mV         (10 %), step = 6 mV            (2 %)
    dcs-000_dcs: dc = 36 mV         (12 %), step = 6 mV            (2 %)
    dcs-000_dcs: dc = 42 mV         (14 %), step = 6 mV            (2 %)
    dcs-000_dcs: dc = 48 mV         (16 %), step = 6 mV            (2 %)
    dcs-000_dcs: dc = 54 mV         (18 %), step = 6 mV            (2 %)
    dcs-000_dcs: dc = 60 mV         (20 %), step = 6 mV            (2 %)
    dcs-000_dcs: dc = 66 mV         (22 %), step = 6 mV            (2 %)
    dcs-000_dcs: dc = 72 mV         (24 %), step = 6 mV            (2 %)
    dcs-000_dcs: dc = 78 mV         (26 %), step = 6 mV            (2 %)
    dcs-000_dcs: dc = 84 mV         (28 %), step = 6 mV            (2 %)
    dcs-000_dcs: dc = 90 mV         (30 %), step = 6 mV            (2 %)
    dcs-000_dcs: dc = 96 mV         (32 %), step = 6 mV            (2 %)
    dcs-000_dcs: dc = 102 mV        (34 %), step = 6 mV            (2 %)
    dcs-000_dcs: dc = 108 mV        (36 %), step = 6 mV            (2 %)
    dcs-000_dcs: dc = 114 mV        (38 %), step = 6 mV            (2 %)
    dcs-000_dcs: dc = 120 mV        (40 %), step = 6 mV            (2 %)
    dcs-000_dcs: dc = 126 mV        (42 %), step = 6 mV            (2 %)
    dcs-000_dcs: dc = 132 mV        (44 %), step = 6 mV            (2 %)
    dcs-000_dcs: dc = 138 mV        (46 %), step = 6 mV            (2 %)
    dcs-000_dcs: dc = 144 mV        (48 %), step = 6 mV            (2 %)
    dcs-000_dcs: dc = 150 mV        (50 %), step = 6 mV            (2 %)
    dcs-000_dcs: dc = 156 mV        (52 %), step = 6 mV            (2 %)
    dcs-000_dcs: dc = 162 mV        (54 %), step = 6 mV            (2 %)
    dcs-000_dcs: dc = 168 mV        (56 %), step = 6 mV            (2 %)
    dcs-000_dcs: dc = 174 mV        (58 %), step = 6 mV            (2 %)
    dcs-000_dcs: dc = 180 mV        (60 %), step = 6 mV            (2 %)
    dcs-000_dcs: dc = 186 mV        (62 %), step = 6 mV            (2 %)
    dcs-000_dcs: dc = 192 mV        (64 %), step = 6 mV            (2 %)
    dcs-000_dcs: dc = 198 mV        (66 %), step = 6 mV            (2 %)
    dcs-000_dcs: dc = 204 mV        (68 %), step = 6 mV            (2 %)
    dcs-000_dcs: dc = 210 mV        (70 %), step = 6 mV            (2 %)
    dcs-000_dcs: dc = 216 mV        (72 %), step = 6 mV            (2 %)
    dcs-000_dcs: dc = 222 mV        (74 %), step = 6 mV            (2 %)
    dcs-000_dcs: dc = 228 mV        (76 %), step = 6 mV            (2 %)
    dcs-000_dcs: dc = 234 mV        (78 %), step = 6 mV            (2 %)
    dcs-000_dcs: dc = 240 mV        (80 %), step = 6 mV            (2 %)
    dcs-000_dcs: dc = 246 mV        (82 %), step = 6 mV            (2 %)
    dcs-000_dcs: dc = 252 mV        (84 %), step = 6 mV            (2 %)
    dcs-000_dcs: dc = 258 mV        (86 %), step = 6 mV            (2 %)
    dcs-000_dcs: dc = 264 mV        (88 %), step = 6 mV            (2 %)
    dcs-000_dcs: dc = 270 mV        (90 %), step = 6 mV            (2 %)
    dcs-000_dcs: dc = 276 mV        (92 %), step = 6 mV            (2 %)
    dcs-000_dcs: dc = 282 mV        (94 %), step = 6 mV            (2 %)
    dcs-000_dcs: dc = 288 mV        (96 %), step = 6 mV            (2 %)
    dcs-000_dcs: dc = 294 mV        (98 %), step = 6 mV            (2 %)
    dcs-000_dcs: dc = 300 mV       (100 %), step = 6 mV            (2 %)

Maximum value achieved for any signal of each quantity: 
V: V(net3) = 300 mV
I: I(V0:p) = 857.6 pA
DC simulation time: CPU = 20.996 ms, elapsed = 50.9899 ms.

Notice from spectre at dc = 300 mV during DC analysis `dcs-000_dcs', during task `MDLControl'.
    The value of parameter 'dc' has been reset to the original value 0.

Total time required for dc analysis `dcs-000_dcs': CPU = 20.996 ms, elapsed = 51.033 ms.
Time accumulated: CPU = 1.9357 s, elapsed = 2.93315 s.
Peak resident memory used = 131 Mbytes.


Warning from spectre.
    WARNING (SPECTRE-17101): The value 'psf' specified for the 'checklimitdest' option will no longer be supported in future releases. Use 'spectre -h' to see other recommended values for the 'checklimitdest' option.
    WARNING (SPECTRE-17101): The value 'psf' specified for the 'checklimitdest' option will no longer be supported in future releases. Use 'spectre -h' to see other recommended values for the 'checklimitdest' option.
    WARNING (SPECTRE-17101): The value 'psf' specified for the 'checklimitdest' option will no longer be supported in future releases. Use 'spectre -h' to see other recommended values for the 'checklimitdest' option.
    WARNING (SPECTRE-17101): The value 'psf' specified for the 'checklimitdest' option will no longer be supported in future releases. Use 'spectre -h' to see other recommended values for the 'checklimitdest' option.


***********************************************************
Transient Analysis `trans-000_trans': time = (0 s -> 20 us)
***********************************************************
DC simulation time: CPU = 0 s, elapsed = 417.948 us.

Opening the PSFXL file ./input.raw/trans-000_trans.tran.tran ...
Important parameter values:
    start = 0 s
    outputstart = 0 s
    stop = 20 us
    step = 20 ns
    maxstep = 400 ns
    ic = all
    useprevic = no
    skipdc = no
    reltol = 1e-03
    abstol(V) = 1 uV
    abstol(I) = 1 pA
    temp = 27 C
    tnom = 27 C
    tempeffects = all
    errpreset = moderate
    method = traponly
    lteratio = 3.5
    relref = sigglobal
    cmin = 0 F
    gmin = 1 pS


Output and IC/nodeset summary:
                 save   20      (current)
                 save   13      (voltage)
                 others 6       


Notice from spectre at time = 2.38732 ps during transient analysis `trans-000_trans', during task `MDLControl'.
    Found trapezoidal ringing on node I9.NM1:int_s.
Notice from spectre at time = 3.16699 ps during transient analysis `trans-000_trans', during task `MDLControl'.
    Found trapezoidal ringing on node I9.NM1:int_s.
Notice from spectre at time = 4.44141 ps during transient analysis `trans-000_trans', during task `MDLControl'.
    Found trapezoidal ringing on node I9.NM1:int_s.
Notice from spectre at time = 6.52328 ps during transient analysis `trans-000_trans', during task `MDLControl'.
    Found trapezoidal ringing on node I9.NM1:int_s.
Notice from spectre at time = 9.95518 ps during transient analysis `trans-000_trans', during task `MDLControl'.
    Found trapezoidal ringing on node I9.NM1:int_s.
        Further occurrences of this notice will be suppressed.

......9......8....
`AutoStop = yes'. Analysis finished at 5 us.

Number of accepted tran steps =             219

Notice from spectre during transient analysis `trans-000_trans', during task `MDLControl'.
    Trapezoidal ringing is detected during tran analysis.
        Please use method=trap for better results and performance.


Maximum value achieved for any signal of each quantity: 
V: V(I9.NM0:int_d) = 324.8 mV
I: I(V1:p) = 966.4 uA
If your circuit contains signals of the same quantity that are vastly different in size (such as high voltage circuitry combined with low voltage control circuitry), you should consider specifying global option `bin_relref=yes'.

~~~~~~~~~~~~~~~~~~~~~~~~~~~~~~~~~
Post-Transient Simulation Summary
~~~~~~~~~~~~~~~~~~~~~~~~~~~~~~~~~
   -   To further speed up simulation, consider
          add ++aps on command line
~~~~~~~~~~~~~~~~~~~~~~~~~~~~~~~~~


During simulation, the CPU load for active processors is :
         0 (30.0 %)      1 (21.0 %)      2 (10.6 %)      3 (50.7 %)
        Total: 112.3%
Initial condition solution time: CPU = 0 s, elapsed = 474.93 us.
Intrinsic tran analysis time:    CPU = 30.995 ms, elapsed = 55.902 ms.
Total time required for tran analysis `trans-000_trans': CPU = 34.995 ms, elapsed = 59.0558 ms.
Time accumulated: CPU = 2.00069 s, elapsed = 3.0231 s.
Peak resident memory used = 131 Mbytes.


Notice from spectre during task `MDLControl'.
    66 notices suppressed.


**************************************************
DC Analysis `dcs-000_dcs': V1:dc = (0 V -> 300 mV)
**************************************************

Opening the PSF file ./input.raw/dcs-000_dcs.dc ...
Important parameter values:
    reltol = 1e-03
    abstol(V) = 1 uV
    abstol(I) = 1 pA
    temp = 27 C
    tnom = 27 C
    tempeffects = all
    gmindc = 1 pS
    dcs-000_dcs: dc = 12 mV          (4 %), step = 6 mV            (2 %)
    dcs-000_dcs: dc = 18 mV          (6 %), step = 6 mV            (2 %)
    dcs-000_dcs: dc = 24 mV          (8 %), step = 6 mV            (2 %)
    dcs-000_dcs: dc = 30 mV         (10 %), step = 6 mV            (2 %)
    dcs-000_dcs: dc = 36 mV         (12 %), step = 6 mV            (2 %)
    dcs-000_dcs: dc = 42 mV         (14 %), step = 6 mV            (2 %)
    dcs-000_dcs: dc = 48 mV         (16 %), step = 6 mV            (2 %)
    dcs-000_dcs: dc = 54 mV         (18 %), step = 6 mV            (2 %)
    dcs-000_dcs: dc = 60 mV         (20 %), step = 6 mV            (2 %)
    dcs-000_dcs: dc = 66 mV         (22 %), step = 6 mV            (2 %)
    dcs-000_dcs: dc = 72 mV         (24 %), step = 6 mV            (2 %)
    dcs-000_dcs: dc = 78 mV         (26 %), step = 6 mV            (2 %)
    dcs-000_dcs: dc = 84 mV         (28 %), step = 6 mV            (2 %)
    dcs-000_dcs: dc = 90 mV         (30 %), step = 6 mV            (2 %)
    dcs-000_dcs: dc = 96 mV         (32 %), step = 6 mV            (2 %)
    dcs-000_dcs: dc = 102 mV        (34 %), step = 6 mV            (2 %)
    dcs-000_dcs: dc = 108 mV        (36 %), step = 6 mV            (2 %)
    dcs-000_dcs: dc = 114 mV        (38 %), step = 6 mV            (2 %)
    dcs-000_dcs: dc = 120 mV        (40 %), step = 6 mV            (2 %)
    dcs-000_dcs: dc = 126 mV        (42 %), step = 6 mV            (2 %)
    dcs-000_dcs: dc = 132 mV        (44 %), step = 6 mV            (2 %)
    dcs-000_dcs: dc = 138 mV        (46 %), step = 6 mV            (2 %)
    dcs-000_dcs: dc = 144 mV        (48 %), step = 6 mV            (2 %)
    dcs-000_dcs: dc = 150 mV        (50 %), step = 6 mV            (2 %)
    dcs-000_dcs: dc = 156 mV        (52 %), step = 6 mV            (2 %)
    dcs-000_dcs: dc = 162 mV        (54 %), step = 6 mV            (2 %)
    dcs-000_dcs: dc = 168 mV        (56 %), step = 6 mV            (2 %)
    dcs-000_dcs: dc = 174 mV        (58 %), step = 6 mV            (2 %)
    dcs-000_dcs: dc = 180 mV        (60 %), step = 6 mV            (2 %)
    dcs-000_dcs: dc = 186 mV        (62 %), step = 6 mV            (2 %)
    dcs-000_dcs: dc = 192 mV        (64 %), step = 6 mV            (2 %)
    dcs-000_dcs: dc = 198 mV        (66 %), step = 6 mV            (2 %)
    dcs-000_dcs: dc = 204 mV        (68 %), step = 6 mV            (2 %)
    dcs-000_dcs: dc = 210 mV        (70 %), step = 6 mV            (2 %)
    dcs-000_dcs: dc = 216 mV        (72 %), step = 6 mV            (2 %)
    dcs-000_dcs: dc = 222 mV        (74 %), step = 6 mV            (2 %)
    dcs-000_dcs: dc = 228 mV        (76 %), step = 6 mV            (2 %)
    dcs-000_dcs: dc = 234 mV        (78 %), step = 6 mV            (2 %)
    dcs-000_dcs: dc = 240 mV        (80 %), step = 6 mV            (2 %)
    dcs-000_dcs: dc = 246 mV        (82 %), step = 6 mV            (2 %)
    dcs-000_dcs: dc = 252 mV        (84 %), step = 6 mV            (2 %)
    dcs-000_dcs: dc = 258 mV        (86 %), step = 6 mV            (2 %)
    dcs-000_dcs: dc = 264 mV        (88 %), step = 6 mV            (2 %)
    dcs-000_dcs: dc = 270 mV        (90 %), step = 6 mV            (2 %)
    dcs-000_dcs: dc = 276 mV        (92 %), step = 6 mV            (2 %)
    dcs-000_dcs: dc = 282 mV        (94 %), step = 6 mV            (2 %)
    dcs-000_dcs: dc = 288 mV        (96 %), step = 6 mV            (2 %)
    dcs-000_dcs: dc = 294 mV        (98 %), step = 6 mV            (2 %)
    dcs-000_dcs: dc = 300 mV       (100 %), step = 6 mV            (2 %)

Maximum value achieved for any signal of each quantity: 
V: V(net3) = 300 mV
I: I(V0:p) = 123.6 pA
DC simulation time: CPU = 18.997 ms, elapsed = 50.0259 ms.

Notice from spectre at dc = 300 mV during DC analysis `dcs-000_dcs', during task `MDLControl'.
    The value of parameter 'dc' has been reset to the original value 0.

Total time required for dc analysis `dcs-000_dcs': CPU = 18.997 ms, elapsed = 50.0672 ms.
Time accumulated: CPU = 2.01969 s, elapsed = 3.07378 s.
Peak resident memory used = 131 Mbytes.


Warning from spectre.
    WARNING (SPECTRE-17101): The value 'psf' specified for the 'checklimitdest' option will no longer be supported in future releases. Use 'spectre -h' to see other recommended values for the 'checklimitdest' option.


***********************************************************
Transient Analysis `trans-000_trans': time = (0 s -> 20 us)
***********************************************************
DC simulation time: CPU = 0 s, elapsed = 355.005 us.

Opening the PSFXL file ./input.raw/trans-000_trans.tran.tran ...
Important parameter values:
    start = 0 s
    outputstart = 0 s
    stop = 20 us
    step = 20 ns
    maxstep = 400 ns
    ic = all
    useprevic = no
    skipdc = no
    reltol = 1e-03
    abstol(V) = 1 uV
    abstol(I) = 1 pA
    temp = 27 C
    tnom = 27 C
    tempeffects = all
    errpreset = moderate
    method = traponly
    lteratio = 3.5
    relref = sigglobal
    cmin = 0 F
    gmin = 1 pS


Output and IC/nodeset summary:
                 save   20      (current)
                 save   13      (voltage)
                 others 6       


Notice from spectre at time = 2.38942 ps during transient analysis `trans-000_trans', during task `MDLControl'.
    Found trapezoidal ringing on node I9.NM1:int_s.
Notice from spectre at time = 3.1705 ps during transient analysis `trans-000_trans', during task `MDLControl'.
    Found trapezoidal ringing on node I9.NM1:int_s.
Notice from spectre at time = 4.4473 ps during transient analysis `trans-000_trans', during task `MDLControl'.
    Found trapezoidal ringing on node I9.NM1:int_s.
Notice from spectre at time = 6.53311 ps during transient analysis `trans-000_trans', during task `MDLControl'.
    Found trapezoidal ringing on node I9.NM1:int_s.
Notice from spectre at time = 9.97158 ps during transient analysis `trans-000_trans', during task `MDLControl'.
    Found trapezoidal ringing on node I9.NM1:int_s.
        Further occurrences of this notice will be suppressed.

......9......8....
`AutoStop = yes'. Analysis finished at 5 us.

Number of accepted tran steps =             215

Notice from spectre during transient analysis `trans-000_trans', during task `MDLControl'.
    Trapezoidal ringing is detected during tran analysis.
        Please use method=trap for better results and performance.


Maximum value achieved for any signal of each quantity: 
V: V(I9.NM0:int_d) = 325.3 mV
I: I(V1:p) = 988.1 uA
If your circuit contains signals of the same quantity that are vastly different in size (such as high voltage circuitry combined with low voltage control circuitry), you should consider specifying global option `bin_relref=yes'.

~~~~~~~~~~~~~~~~~~~~~~~~~~~~~~~~~
Post-Transient Simulation Summary
~~~~~~~~~~~~~~~~~~~~~~~~~~~~~~~~~
   -   To further speed up simulation, consider
          add ++aps on command line
~~~~~~~~~~~~~~~~~~~~~~~~~~~~~~~~~


During simulation, the CPU load for active processors is :
         0 (31.1 %)      1 (21.7 %)      2 (10.8 %)      3 (48.9 %)
        Total: 112.5%
Initial condition solution time: CPU = 0 s, elapsed = 396.967 us.
Intrinsic tran analysis time:    CPU = 36.995 ms, elapsed = 68.1782 ms.
Total time required for tran analysis `trans-000_trans': CPU = 38.994 ms, elapsed = 70.956 ms.
Time accumulated: CPU = 2.06868 s, elapsed = 3.15406 s.
Peak resident memory used = 131 Mbytes.


Notice from spectre during task `MDLControl'.
    76 notices suppressed.


**************************************************
DC Analysis `dcs-000_dcs': V1:dc = (0 V -> 300 mV)
**************************************************

Opening the PSF file ./input.raw/dcs-000_dcs.dc ...
Important parameter values:
    reltol = 1e-03
    abstol(V) = 1 uV
    abstol(I) = 1 pA
    temp = 27 C
    tnom = 27 C
    tempeffects = all
    gmindc = 1 pS
    dcs-000_dcs: dc = 12 mV          (4 %), step = 6 mV            (2 %)
    dcs-000_dcs: dc = 18 mV          (6 %), step = 6 mV            (2 %)
    dcs-000_dcs: dc = 24 mV          (8 %), step = 6 mV            (2 %)
    dcs-000_dcs: dc = 30 mV         (10 %), step = 6 mV            (2 %)
    dcs-000_dcs: dc = 36 mV         (12 %), step = 6 mV            (2 %)
    dcs-000_dcs: dc = 42 mV         (14 %), step = 6 mV            (2 %)
    dcs-000_dcs: dc = 48 mV         (16 %), step = 6 mV            (2 %)
    dcs-000_dcs: dc = 54 mV         (18 %), step = 6 mV            (2 %)
    dcs-000_dcs: dc = 60 mV         (20 %), step = 6 mV            (2 %)
    dcs-000_dcs: dc = 66 mV         (22 %), step = 6 mV            (2 %)
    dcs-000_dcs: dc = 72 mV         (24 %), step = 6 mV            (2 %)
    dcs-000_dcs: dc = 78 mV         (26 %), step = 6 mV            (2 %)
    dcs-000_dcs: dc = 84 mV         (28 %), step = 6 mV            (2 %)
    dcs-000_dcs: dc = 90 mV         (30 %), step = 6 mV            (2 %)
    dcs-000_dcs: dc = 96 mV         (32 %), step = 6 mV            (2 %)
    dcs-000_dcs: dc = 102 mV        (34 %), step = 6 mV            (2 %)
    dcs-000_dcs: dc = 108 mV        (36 %), step = 6 mV            (2 %)
    dcs-000_dcs: dc = 114 mV        (38 %), step = 6 mV            (2 %)
    dcs-000_dcs: dc = 120 mV        (40 %), step = 6 mV            (2 %)
    dcs-000_dcs: dc = 126 mV        (42 %), step = 6 mV            (2 %)
    dcs-000_dcs: dc = 132 mV        (44 %), step = 6 mV            (2 %)
    dcs-000_dcs: dc = 138 mV        (46 %), step = 6 mV            (2 %)
    dcs-000_dcs: dc = 144 mV        (48 %), step = 6 mV            (2 %)
    dcs-000_dcs: dc = 150 mV        (50 %), step = 6 mV            (2 %)
    dcs-000_dcs: dc = 156 mV        (52 %), step = 6 mV            (2 %)
    dcs-000_dcs: dc = 162 mV        (54 %), step = 6 mV            (2 %)
    dcs-000_dcs: dc = 168 mV        (56 %), step = 6 mV            (2 %)
    dcs-000_dcs: dc = 174 mV        (58 %), step = 6 mV            (2 %)
    dcs-000_dcs: dc = 180 mV        (60 %), step = 6 mV            (2 %)
    dcs-000_dcs: dc = 186 mV        (62 %), step = 6 mV            (2 %)
    dcs-000_dcs: dc = 192 mV        (64 %), step = 6 mV            (2 %)
    dcs-000_dcs: dc = 198 mV        (66 %), step = 6 mV            (2 %)
    dcs-000_dcs: dc = 204 mV        (68 %), step = 6 mV            (2 %)
    dcs-000_dcs: dc = 210 mV        (70 %), step = 6 mV            (2 %)
    dcs-000_dcs: dc = 216 mV        (72 %), step = 6 mV            (2 %)
    dcs-000_dcs: dc = 222 mV        (74 %), step = 6 mV            (2 %)
    dcs-000_dcs: dc = 228 mV        (76 %), step = 6 mV            (2 %)
    dcs-000_dcs: dc = 234 mV        (78 %), step = 6 mV            (2 %)
    dcs-000_dcs: dc = 240 mV        (80 %), step = 6 mV            (2 %)
    dcs-000_dcs: dc = 246 mV        (82 %), step = 6 mV            (2 %)
    dcs-000_dcs: dc = 252 mV        (84 %), step = 6 mV            (2 %)
    dcs-000_dcs: dc = 258 mV        (86 %), step = 6 mV            (2 %)
    dcs-000_dcs: dc = 264 mV        (88 %), step = 6 mV            (2 %)
    dcs-000_dcs: dc = 270 mV        (90 %), step = 6 mV            (2 %)
    dcs-000_dcs: dc = 276 mV        (92 %), step = 6 mV            (2 %)
    dcs-000_dcs: dc = 282 mV        (94 %), step = 6 mV            (2 %)
    dcs-000_dcs: dc = 288 mV        (96 %), step = 6 mV            (2 %)
    dcs-000_dcs: dc = 294 mV        (98 %), step = 6 mV            (2 %)
    dcs-000_dcs: dc = 300 mV       (100 %), step = 6 mV            (2 %)

Maximum value achieved for any signal of each quantity: 
V: V(net3) = 300 mV
I: I(V0:p) = 127.5 pA
DC simulation time: CPU = 17.997 ms, elapsed = 60.3511 ms.

Notice from spectre at dc = 300 mV during DC analysis `dcs-000_dcs', during task `MDLControl'.
    The value of parameter 'dc' has been reset to the original value 0.

Total time required for dc analysis `dcs-000_dcs': CPU = 17.997 ms, elapsed = 60.3931 ms.
Time accumulated: CPU = 2.08768 s, elapsed = 3.21513 s.
Peak resident memory used = 131 Mbytes.


Warning from spectre.
    WARNING (SPECTRE-17101): The value 'psf' specified for the 'checklimitdest' option will no longer be supported in future releases. Use 'spectre -h' to see other recommended values for the 'checklimitdest' option.
    WARNING (SPECTRE-17101): The value 'psf' specified for the 'checklimitdest' option will no longer be supported in future releases. Use 'spectre -h' to see other recommended values for the 'checklimitdest' option.


***********************************************************
Transient Analysis `trans-000_trans': time = (0 s -> 20 us)
***********************************************************
DC simulation time: CPU = 0 s, elapsed = 368.118 us.

Opening the PSFXL file ./input.raw/trans-000_trans.tran.tran ...
Important parameter values:
    start = 0 s
    outputstart = 0 s
    stop = 20 us
    step = 20 ns
    maxstep = 400 ns
    ic = all
    useprevic = no
    skipdc = no
    reltol = 1e-03
    abstol(V) = 1 uV
    abstol(I) = 1 pA
    temp = 27 C
    tnom = 27 C
    tempeffects = all
    errpreset = moderate
    method = traponly
    lteratio = 3.5
    relref = sigglobal
    cmin = 0 F
    gmin = 1 pS


Output and IC/nodeset summary:
                 save   20      (current)
                 save   13      (voltage)
                 others 6       


Notice from spectre at time = 2.37175 ps during transient analysis `trans-000_trans', during task `MDLControl'.
    Found trapezoidal ringing on node I9.NM1:int_s.
Notice from spectre at time = 3.14084 ps during transient analysis `trans-000_trans', during task `MDLControl'.
    Found trapezoidal ringing on node I9.NM1:int_s.
Notice from spectre at time = 4.39887 ps during transient analysis `trans-000_trans', during task `MDLControl'.
    Found trapezoidal ringing on node I9.NM1:int_s.
Notice from spectre at time = 6.45647 ps during transient analysis `trans-000_trans', during task `MDLControl'.
    Found trapezoidal ringing on node I9.NM1:int_s.
Notice from spectre at time = 9.85346 ps during transient analysis `trans-000_trans', during task `MDLControl'.
    Found trapezoidal ringing on node I9.NM1:int_s.
        Further occurrences of this notice will be suppressed.

......9......8....
`AutoStop = yes'. Analysis finished at 5 us.

Number of accepted tran steps =             221

Notice from spectre during transient analysis `trans-000_trans', during task `MDLControl'.
    Trapezoidal ringing is detected during tran analysis.
        Please use method=trap for better results and performance.


Maximum value achieved for any signal of each quantity: 
V: V(I9.NM0:int_d) = 325 mV
I: I(V1:p) = 975.4 uA
If your circuit contains signals of the same quantity that are vastly different in size (such as high voltage circuitry combined with low voltage control circuitry), you should consider specifying global option `bin_relref=yes'.

~~~~~~~~~~~~~~~~~~~~~~~~~~~~~~~~~
Post-Transient Simulation Summary
~~~~~~~~~~~~~~~~~~~~~~~~~~~~~~~~~
   -   To further speed up simulation, consider
          add ++aps on command line
~~~~~~~~~~~~~~~~~~~~~~~~~~~~~~~~~


During simulation, the CPU load for active processors is :
         0 (31.4 %)      1 (22.1 %)      2 (11.9 %)      3 (47.0 %)
        Total: 112.5%
Initial condition solution time: CPU = 0 s, elapsed = 409.126 us.
Intrinsic tran analysis time:    CPU = 32.995 ms, elapsed = 58.2571 ms.
Total time required for tran analysis `trans-000_trans': CPU = 34.995 ms, elapsed = 60.9748 ms.
Time accumulated: CPU = 2.13867 s, elapsed = 3.2916 s.
Peak resident memory used = 131 Mbytes.


Notice from spectre during task `MDLControl'.
    63 notices suppressed.


**************************************************
DC Analysis `dcs-000_dcs': V1:dc = (0 V -> 300 mV)
**************************************************

Opening the PSF file ./input.raw/dcs-000_dcs.dc ...
Important parameter values:
    reltol = 1e-03
    abstol(V) = 1 uV
    abstol(I) = 1 pA
    temp = 27 C
    tnom = 27 C
    tempeffects = all
    gmindc = 1 pS
    dcs-000_dcs: dc = 12 mV          (4 %), step = 6 mV            (2 %)
    dcs-000_dcs: dc = 18 mV          (6 %), step = 6 mV            (2 %)
    dcs-000_dcs: dc = 24 mV          (8 %), step = 6 mV            (2 %)
    dcs-000_dcs: dc = 30 mV         (10 %), step = 6 mV            (2 %)
    dcs-000_dcs: dc = 36 mV         (12 %), step = 6 mV            (2 %)
    dcs-000_dcs: dc = 42 mV         (14 %), step = 6 mV            (2 %)
    dcs-000_dcs: dc = 48 mV         (16 %), step = 6 mV            (2 %)
    dcs-000_dcs: dc = 54 mV         (18 %), step = 6 mV            (2 %)
    dcs-000_dcs: dc = 60 mV         (20 %), step = 6 mV            (2 %)
    dcs-000_dcs: dc = 66 mV         (22 %), step = 6 mV            (2 %)
    dcs-000_dcs: dc = 72 mV         (24 %), step = 6 mV            (2 %)
    dcs-000_dcs: dc = 78 mV         (26 %), step = 6 mV            (2 %)
    dcs-000_dcs: dc = 84 mV         (28 %), step = 6 mV            (2 %)
    dcs-000_dcs: dc = 90 mV         (30 %), step = 6 mV            (2 %)
    dcs-000_dcs: dc = 96 mV         (32 %), step = 6 mV            (2 %)
    dcs-000_dcs: dc = 102 mV        (34 %), step = 6 mV            (2 %)
    dcs-000_dcs: dc = 108 mV        (36 %), step = 6 mV            (2 %)
    dcs-000_dcs: dc = 114 mV        (38 %), step = 6 mV            (2 %)
    dcs-000_dcs: dc = 120 mV        (40 %), step = 6 mV            (2 %)
    dcs-000_dcs: dc = 126 mV        (42 %), step = 6 mV            (2 %)
    dcs-000_dcs: dc = 132 mV        (44 %), step = 6 mV            (2 %)
    dcs-000_dcs: dc = 138 mV        (46 %), step = 6 mV            (2 %)
    dcs-000_dcs: dc = 144 mV        (48 %), step = 6 mV            (2 %)
    dcs-000_dcs: dc = 150 mV        (50 %), step = 6 mV            (2 %)
    dcs-000_dcs: dc = 156 mV        (52 %), step = 6 mV            (2 %)
    dcs-000_dcs: dc = 162 mV        (54 %), step = 6 mV            (2 %)
    dcs-000_dcs: dc = 168 mV        (56 %), step = 6 mV            (2 %)
    dcs-000_dcs: dc = 174 mV        (58 %), step = 6 mV            (2 %)
    dcs-000_dcs: dc = 180 mV        (60 %), step = 6 mV            (2 %)
    dcs-000_dcs: dc = 186 mV        (62 %), step = 6 mV            (2 %)
    dcs-000_dcs: dc = 192 mV        (64 %), step = 6 mV            (2 %)
    dcs-000_dcs: dc = 198 mV        (66 %), step = 6 mV            (2 %)
    dcs-000_dcs: dc = 204 mV        (68 %), step = 6 mV            (2 %)
    dcs-000_dcs: dc = 210 mV        (70 %), step = 6 mV            (2 %)
    dcs-000_dcs: dc = 216 mV        (72 %), step = 6 mV            (2 %)
    dcs-000_dcs: dc = 222 mV        (74 %), step = 6 mV            (2 %)
    dcs-000_dcs: dc = 228 mV        (76 %), step = 6 mV            (2 %)
    dcs-000_dcs: dc = 234 mV        (78 %), step = 6 mV            (2 %)
    dcs-000_dcs: dc = 240 mV        (80 %), step = 6 mV            (2 %)
    dcs-000_dcs: dc = 246 mV        (82 %), step = 6 mV            (2 %)
    dcs-000_dcs: dc = 252 mV        (84 %), step = 6 mV            (2 %)
    dcs-000_dcs: dc = 258 mV        (86 %), step = 6 mV            (2 %)
    dcs-000_dcs: dc = 264 mV        (88 %), step = 6 mV            (2 %)
    dcs-000_dcs: dc = 270 mV        (90 %), step = 6 mV            (2 %)
    dcs-000_dcs: dc = 276 mV        (92 %), step = 6 mV            (2 %)
    dcs-000_dcs: dc = 282 mV        (94 %), step = 6 mV            (2 %)
    dcs-000_dcs: dc = 288 mV        (96 %), step = 6 mV            (2 %)
[...]
    dcs-000_dcs: dc = 162 mV        (54 %), step = 6 mV            (2 %)
    dcs-000_dcs: dc = 168 mV        (56 %), step = 6 mV            (2 %)
    dcs-000_dcs: dc = 174 mV        (58 %), step = 6 mV            (2 %)
    dcs-000_dcs: dc = 180 mV        (60 %), step = 6 mV            (2 %)
    dcs-000_dcs: dc = 186 mV        (62 %), step = 6 mV            (2 %)
    dcs-000_dcs: dc = 192 mV        (64 %), step = 6 mV            (2 %)
    dcs-000_dcs: dc = 198 mV        (66 %), step = 6 mV            (2 %)
    dcs-000_dcs: dc = 204 mV        (68 %), step = 6 mV            (2 %)
    dcs-000_dcs: dc = 210 mV        (70 %), step = 6 mV            (2 %)
    dcs-000_dcs: dc = 216 mV        (72 %), step = 6 mV            (2 %)
    dcs-000_dcs: dc = 222 mV        (74 %), step = 6 mV            (2 %)
    dcs-000_dcs: dc = 228 mV        (76 %), step = 6 mV            (2 %)
    dcs-000_dcs: dc = 234 mV        (78 %), step = 6 mV            (2 %)
    dcs-000_dcs: dc = 240 mV        (80 %), step = 6 mV            (2 %)
    dcs-000_dcs: dc = 246 mV        (82 %), step = 6 mV            (2 %)
    dcs-000_dcs: dc = 252 mV        (84 %), step = 6 mV            (2 %)
    dcs-000_dcs: dc = 258 mV        (86 %), step = 6 mV            (2 %)
    dcs-000_dcs: dc = 264 mV        (88 %), step = 6 mV            (2 %)
    dcs-000_dcs: dc = 270 mV        (90 %), step = 6 mV            (2 %)
    dcs-000_dcs: dc = 276 mV        (92 %), step = 6 mV            (2 %)
    dcs-000_dcs: dc = 282 mV        (94 %), step = 6 mV            (2 %)
    dcs-000_dcs: dc = 288 mV        (96 %), step = 6 mV            (2 %)
    dcs-000_dcs: dc = 294 mV        (98 %), step = 6 mV            (2 %)
    dcs-000_dcs: dc = 300 mV       (100 %), step = 6 mV            (2 %)

Maximum value achieved for any signal of each quantity: 
V: V(net3) = 300 mV
I: I(V0:p) = 100.9 pA
DC simulation time: CPU = 12.998 ms, elapsed = 52.7599 ms.

Notice from spectre at dc = 300 mV during DC analysis `dcs-000_dcs', during task `MDLControl'.
    The value of parameter 'dc' has been reset to the original value 0.

Total time required for dc analysis `dcs-000_dcs': CPU = 12.998 ms, elapsed = 52.8021 ms.
Time accumulated: CPU = 8.99663 s, elapsed = 16.7746 s.
Peak resident memory used = 133 Mbytes.


Warning from spectre.
    WARNING (SPECTRE-17101): The value 'psf' specified for the 'checklimitdest' option will no longer be supported in future releases. Use 'spectre -h' to see other recommended values for the 'checklimitdest' option.
    WARNING (SPECTRE-17101): The value 'psf' specified for the 'checklimitdest' option will no longer be supported in future releases. Use 'spectre -h' to see other recommended values for the 'checklimitdest' option.
    WARNING (SPECTRE-17101): The value 'psf' specified for the 'checklimitdest' option will no longer be supported in future releases. Use 'spectre -h' to see other recommended values for the 'checklimitdest' option.
    WARNING (SPECTRE-17101): The value 'psf' specified for the 'checklimitdest' option will no longer be supported in future releases. Use 'spectre -h' to see other recommended values for the 'checklimitdest' option.


***********************************************************
Transient Analysis `trans-000_trans': time = (0 s -> 20 us)
***********************************************************

Notice from spectre during IC analysis, during transient analysis `trans-000_trans', during task `MDLControl'.
    GminDC = 1 pS is large enough to noticeably affect the DC solution.
        dV(I9.NM0:int_s) = 125.151 uV
        Use the `gmin_check' option to eliminate or expand this report.

DC simulation time: CPU = 0 s, elapsed = 566.959 us.

Opening the PSFXL file ./input.raw/trans-000_trans.tran.tran ...
Important parameter values:
    start = 0 s
    outputstart = 0 s
    stop = 20 us
    step = 20 ns
    maxstep = 400 ns
    ic = all
    useprevic = no
    skipdc = no
    reltol = 1e-03
    abstol(V) = 1 uV
    abstol(I) = 1 pA
    temp = 27 C
    tnom = 27 C
    tempeffects = all
    errpreset = moderate
    method = traponly
    lteratio = 3.5
    relref = sigglobal
    cmin = 0 F
    gmin = 1 pS


Output and IC/nodeset summary:
                 save   20      (current)
                 save   13      (voltage)
                 others 6       


Notice from spectre at time = 2.1237 ps during transient analysis `trans-000_trans', during task `MDLControl'.
    Found trapezoidal ringing on node I9.NM1:int_s.
Notice from spectre at time = 2.71933 ps during transient analysis `trans-000_trans', during task `MDLControl'.
    Found trapezoidal ringing on node I9.NM1:int_s.
Notice from spectre at time = 3.69796 ps during transient analysis `trans-000_trans', during task `MDLControl'.
    Found trapezoidal ringing on node I9.NM1:int_s.
Notice from spectre at time = 5.31793 ps during transient analysis `trans-000_trans', during task `MDLControl'.
    Found trapezoidal ringing on node I9.NM1:int_s.
Notice from spectre at time = 8.03241 ps during transient analysis `trans-000_trans', during task `MDLControl'.
    Found trapezoidal ringing on node I9.NM1:int_s.
        Further occurrences of this notice will be suppressed.

......9......8....
`AutoStop = yes'. Analysis finished at 5 us.

Number of accepted tran steps =             224

Notice from spectre during transient analysis `trans-000_trans', during task `MDLControl'.
    Trapezoidal ringing is detected during tran analysis.
        Please use method=trap for better results and performance.


Maximum value achieved for any signal of each quantity: 
V: V(I9.NM0:int_d) = 316.4 mV
I: I(V1:p) = 553.2 uA
If your circuit contains signals of the same quantity that are vastly different in size (such as high voltage circuitry combined with low voltage control circuitry), you should consider specifying global option `bin_relref=yes'.

~~~~~~~~~~~~~~~~~~~~~~~~~~~~~~~~~
Post-Transient Simulation Summary
~~~~~~~~~~~~~~~~~~~~~~~~~~~~~~~~~
   -   To further speed up simulation, consider
          add ++aps on command line
~~~~~~~~~~~~~~~~~~~~~~~~~~~~~~~~~


During simulation, the CPU load for active processors is :
         0 (52.2 %)      1 (32.2 %)      2 (15.9 %)      3 (18.2 %)
        Total: 118.5%
Initial condition solution time: CPU = 0 s, elapsed = 606.06 us.
Intrinsic tran analysis time:    CPU = 34.995 ms, elapsed = 59.7692 ms.
Total time required for tran analysis `trans-000_trans': CPU = 38.994 ms, elapsed = 63.905 ms.
Time accumulated: CPU = 9.06362 s, elapsed = 16.8671 s.
Peak resident memory used = 133 Mbytes.


Notice from spectre during task `MDLControl'.
    63 notices suppressed.


**************************************************
DC Analysis `dcs-000_dcs': V1:dc = (0 V -> 300 mV)
**************************************************

Opening the PSF file ./input.raw/dcs-000_dcs.dc ...
Important parameter values:
    reltol = 1e-03
    abstol(V) = 1 uV
    abstol(I) = 1 pA
    temp = 27 C
    tnom = 27 C
    tempeffects = all
    gmindc = 1 pS

Notice from spectre at dc = 0 V during DC analysis `dcs-000_dcs', during task `MDLControl'.
    GminDC = 1 pS is large enough to noticeably affect the DC solution.
        dV(I9.NM1:int_d) = -254.057 uV
        Use the `gmin_check' option to eliminate or expand this report.

    dcs-000_dcs: dc = 12 mV          (4 %), step = 6 mV            (2 %)
    dcs-000_dcs: dc = 18 mV          (6 %), step = 6 mV            (2 %)
    dcs-000_dcs: dc = 24 mV          (8 %), step = 6 mV            (2 %)
    dcs-000_dcs: dc = 30 mV         (10 %), step = 6 mV            (2 %)
    dcs-000_dcs: dc = 36 mV         (12 %), step = 6 mV            (2 %)
    dcs-000_dcs: dc = 42 mV         (14 %), step = 6 mV            (2 %)
    dcs-000_dcs: dc = 48 mV         (16 %), step = 6 mV            (2 %)
    dcs-000_dcs: dc = 54 mV         (18 %), step = 6 mV            (2 %)
    dcs-000_dcs: dc = 60 mV         (20 %), step = 6 mV            (2 %)
    dcs-000_dcs: dc = 66 mV         (22 %), step = 6 mV            (2 %)
    dcs-000_dcs: dc = 72 mV         (24 %), step = 6 mV            (2 %)
    dcs-000_dcs: dc = 78 mV         (26 %), step = 6 mV            (2 %)
    dcs-000_dcs: dc = 84 mV         (28 %), step = 6 mV            (2 %)
    dcs-000_dcs: dc = 90 mV         (30 %), step = 6 mV            (2 %)
    dcs-000_dcs: dc = 96 mV         (32 %), step = 6 mV            (2 %)
    dcs-000_dcs: dc = 102 mV        (34 %), step = 6 mV            (2 %)
    dcs-000_dcs: dc = 108 mV        (36 %), step = 6 mV            (2 %)
    dcs-000_dcs: dc = 114 mV        (38 %), step = 6 mV            (2 %)
    dcs-000_dcs: dc = 120 mV        (40 %), step = 6 mV            (2 %)
    dcs-000_dcs: dc = 126 mV        (42 %), step = 6 mV            (2 %)
    dcs-000_dcs: dc = 132 mV        (44 %), step = 6 mV            (2 %)
    dcs-000_dcs: dc = 138 mV        (46 %), step = 6 mV            (2 %)
    dcs-000_dcs: dc = 144 mV        (48 %), step = 6 mV            (2 %)
    dcs-000_dcs: dc = 150 mV        (50 %), step = 6 mV            (2 %)
    dcs-000_dcs: dc = 156 mV        (52 %), step = 6 mV            (2 %)
    dcs-000_dcs: dc = 162 mV        (54 %), step = 6 mV            (2 %)
    dcs-000_dcs: dc = 168 mV        (56 %), step = 6 mV            (2 %)
    dcs-000_dcs: dc = 174 mV        (58 %), step = 6 mV            (2 %)
    dcs-000_dcs: dc = 180 mV        (60 %), step = 6 mV            (2 %)
    dcs-000_dcs: dc = 186 mV        (62 %), step = 6 mV            (2 %)
    dcs-000_dcs: dc = 192 mV        (64 %), step = 6 mV            (2 %)
    dcs-000_dcs: dc = 198 mV        (66 %), step = 6 mV            (2 %)
    dcs-000_dcs: dc = 204 mV        (68 %), step = 6 mV            (2 %)
    dcs-000_dcs: dc = 210 mV        (70 %), step = 6 mV            (2 %)
    dcs-000_dcs: dc = 216 mV        (72 %), step = 6 mV            (2 %)
    dcs-000_dcs: dc = 222 mV        (74 %), step = 6 mV            (2 %)
    dcs-000_dcs: dc = 228 mV        (76 %), step = 6 mV            (2 %)
    dcs-000_dcs: dc = 234 mV        (78 %), step = 6 mV            (2 %)
    dcs-000_dcs: dc = 240 mV        (80 %), step = 6 mV            (2 %)
    dcs-000_dcs: dc = 246 mV        (82 %), step = 6 mV            (2 %)
    dcs-000_dcs: dc = 252 mV        (84 %), step = 6 mV            (2 %)
    dcs-000_dcs: dc = 258 mV        (86 %), step = 6 mV            (2 %)
    dcs-000_dcs: dc = 264 mV        (88 %), step = 6 mV            (2 %)
    dcs-000_dcs: dc = 270 mV        (90 %), step = 6 mV            (2 %)
    dcs-000_dcs: dc = 276 mV        (92 %), step = 6 mV            (2 %)
    dcs-000_dcs: dc = 282 mV        (94 %), step = 6 mV            (2 %)
    dcs-000_dcs: dc = 288 mV        (96 %), step = 6 mV            (2 %)
    dcs-000_dcs: dc = 294 mV        (98 %), step = 6 mV            (2 %)
    dcs-000_dcs: dc = 300 mV       (100 %), step = 6 mV            (2 %)

Maximum value achieved for any signal of each quantity: 
V: V(net3) = 300 mV
I: I(V0:p) = 100.9 pA
DC simulation time: CPU = 14.998 ms, elapsed = 50.668 ms.

Notice from spectre at dc = 300 mV during DC analysis `dcs-000_dcs', during task `MDLControl'.
    The value of parameter 'dc' has been reset to the original value 0.

Total time required for dc analysis `dcs-000_dcs': CPU = 14.998 ms, elapsed = 50.7121 ms.
Time accumulated: CPU = 9.08062 s, elapsed = 16.9185 s.
Peak resident memory used = 133 Mbytes.


***********************************************************
Transient Analysis `trans-000_trans': time = (0 s -> 20 us)
***********************************************************

Notice from spectre during IC analysis, during transient analysis `trans-000_trans', during task `MDLControl'.
    GminDC = 1 pS is large enough to noticeably affect the DC solution.
        dV(I9.NM0:int_s) = 125.151 uV
        Use the `gmin_check' option to eliminate or expand this report.

DC simulation time: CPU = 1 ms, elapsed = 537.157 us.

Opening the PSFXL file ./input.raw/trans-000_trans.tran.tran ...
Important parameter values:
    start = 0 s
    outputstart = 0 s
    stop = 20 us
    step = 20 ns
    maxstep = 400 ns
    ic = all
    useprevic = no
    skipdc = no
    reltol = 1e-03
    abstol(V) = 1 uV
    abstol(I) = 1 pA
    temp = 27 C
    tnom = 27 C
    tempeffects = all
    errpreset = moderate
    method = traponly
    lteratio = 3.5
    relref = sigglobal
    cmin = 0 F
    gmin = 1 pS


Output and IC/nodeset summary:
                 save   20      (current)
                 save   13      (voltage)
                 others 6       


Notice from spectre at time = 2.1237 ps during transient analysis `trans-000_trans', during task `MDLControl'.
    Found trapezoidal ringing on node I9.NM1:int_s.
Notice from spectre at time = 2.71933 ps during transient analysis `trans-000_trans', during task `MDLControl'.
    Found trapezoidal ringing on node I9.NM1:int_s.
Notice from spectre at time = 3.69796 ps during transient analysis `trans-000_trans', during task `MDLControl'.
    Found trapezoidal ringing on node I9.NM1:int_s.
Notice from spectre at time = 5.31793 ps during transient analysis `trans-000_trans', during task `MDLControl'.
    Found trapezoidal ringing on node I9.NM1:int_s.
Notice from spectre at time = 8.03241 ps during transient analysis `trans-000_trans', during task `MDLControl'.
    Found trapezoidal ringing on node I9.NM1:int_s.
        Further occurrences of this notice will be suppressed.

......9......8....
`AutoStop = yes'. Analysis finished at 5 us.

Number of accepted tran steps =             224

Notice from spectre during transient analysis `trans-000_trans', during task `MDLControl'.
    Trapezoidal ringing is detected during tran analysis.
        Please use method=trap for better results and performance.


Maximum value achieved for any signal of each quantity: 
V: V(I9.NM0:int_d) = 316.4 mV
I: I(V1:p) = 553.2 uA
If your circuit contains signals of the same quantity that are vastly different in size (such as high voltage circuitry combined with low voltage control circuitry), you should consider specifying global option `bin_relref=yes'.

~~~~~~~~~~~~~~~~~~~~~~~~~~~~~~~~~
Post-Transient Simulation Summary
~~~~~~~~~~~~~~~~~~~~~~~~~~~~~~~~~
   -   To further speed up simulation, consider
          add ++aps on command line
~~~~~~~~~~~~~~~~~~~~~~~~~~~~~~~~~


During simulation, the CPU load for active processors is :
         0 (52.3 %)      1 (32.3 %)      2 (15.9 %)      3 (18.3 %)
        Total: 118.8%
Initial condition solution time: CPU = 1 ms, elapsed = 573.158 us.
Intrinsic tran analysis time:    CPU = 31.996 ms, elapsed = 74.4259 ms.
Total time required for tran analysis `trans-000_trans': CPU = 34.996 ms, elapsed = 77.3551 ms.
Time accumulated: CPU = 9.11761 s, elapsed = 16.9986 s.
Peak resident memory used = 133 Mbytes.


Notice from spectre during task `MDLControl'.
    63 notices suppressed.


**************************************************
DC Analysis `dcs-000_dcs': V1:dc = (0 V -> 300 mV)
**************************************************

Opening the PSF file ./input.raw/dcs-000_dcs.dc ...
Important parameter values:
    reltol = 1e-03
    abstol(V) = 1 uV
    abstol(I) = 1 pA
    temp = 27 C
    tnom = 27 C
    tempeffects = all
    gmindc = 1 pS

Notice from spectre at dc = 0 V during DC analysis `dcs-000_dcs', during task `MDLControl'.
    GminDC = 1 pS is large enough to noticeably affect the DC solution.
        dV(I9.NM1:int_d) = -254.057 uV
        Use the `gmin_check' option to eliminate or expand this report.

    dcs-000_dcs: dc = 12 mV          (4 %), step = 6 mV            (2 %)
    dcs-000_dcs: dc = 18 mV          (6 %), step = 6 mV            (2 %)
    dcs-000_dcs: dc = 24 mV          (8 %), step = 6 mV            (2 %)
    dcs-000_dcs: dc = 30 mV         (10 %), step = 6 mV            (2 %)
    dcs-000_dcs: dc = 36 mV         (12 %), step = 6 mV            (2 %)
    dcs-000_dcs: dc = 42 mV         (14 %), step = 6 mV            (2 %)
    dcs-000_dcs: dc = 48 mV         (16 %), step = 6 mV            (2 %)
    dcs-000_dcs: dc = 54 mV         (18 %), step = 6 mV            (2 %)
    dcs-000_dcs: dc = 60 mV         (20 %), step = 6 mV            (2 %)
    dcs-000_dcs: dc = 66 mV         (22 %), step = 6 mV            (2 %)
    dcs-000_dcs: dc = 72 mV         (24 %), step = 6 mV            (2 %)
    dcs-000_dcs: dc = 78 mV         (26 %), step = 6 mV            (2 %)
    dcs-000_dcs: dc = 84 mV         (28 %), step = 6 mV            (2 %)
    dcs-000_dcs: dc = 90 mV         (30 %), step = 6 mV            (2 %)
    dcs-000_dcs: dc = 96 mV         (32 %), step = 6 mV            (2 %)
    dcs-000_dcs: dc = 102 mV        (34 %), step = 6 mV            (2 %)
    dcs-000_dcs: dc = 108 mV        (36 %), step = 6 mV            (2 %)
    dcs-000_dcs: dc = 114 mV        (38 %), step = 6 mV            (2 %)
    dcs-000_dcs: dc = 120 mV        (40 %), step = 6 mV            (2 %)
    dcs-000_dcs: dc = 126 mV        (42 %), step = 6 mV            (2 %)
    dcs-000_dcs: dc = 132 mV        (44 %), step = 6 mV            (2 %)
    dcs-000_dcs: dc = 138 mV        (46 %), step = 6 mV            (2 %)
    dcs-000_dcs: dc = 144 mV        (48 %), step = 6 mV            (2 %)
    dcs-000_dcs: dc = 150 mV        (50 %), step = 6 mV            (2 %)
    dcs-000_dcs: dc = 156 mV        (52 %), step = 6 mV            (2 %)
    dcs-000_dcs: dc = 162 mV        (54 %), step = 6 mV            (2 %)
    dcs-000_dcs: dc = 168 mV        (56 %), step = 6 mV            (2 %)
    dcs-000_dcs: dc = 174 mV        (58 %), step = 6 mV            (2 %)
    dcs-000_dcs: dc = 180 mV        (60 %), step = 6 mV            (2 %)
    dcs-000_dcs: dc = 186 mV        (62 %), step = 6 mV            (2 %)
    dcs-000_dcs: dc = 192 mV        (64 %), step = 6 mV            (2 %)
    dcs-000_dcs: dc = 198 mV        (66 %), step = 6 mV            (2 %)
    dcs-000_dcs: dc = 204 mV        (68 %), step = 6 mV            (2 %)
    dcs-000_dcs: dc = 210 mV        (70 %), step = 6 mV            (2 %)
    dcs-000_dcs: dc = 216 mV        (72 %), step = 6 mV            (2 %)
    dcs-000_dcs: dc = 222 mV        (74 %), step = 6 mV            (2 %)
    dcs-000_dcs: dc = 228 mV        (76 %), step = 6 mV            (2 %)
    dcs-000_dcs: dc = 234 mV        (78 %), step = 6 mV            (2 %)
    dcs-000_dcs: dc = 240 mV        (80 %), step = 6 mV            (2 %)
    dcs-000_dcs: dc = 246 mV        (82 %), step = 6 mV            (2 %)
    dcs-000_dcs: dc = 252 mV        (84 %), step = 6 mV            (2 %)
    dcs-000_dcs: dc = 258 mV        (86 %), step = 6 mV            (2 %)
    dcs-000_dcs: dc = 264 mV        (88 %), step = 6 mV            (2 %)
    dcs-000_dcs: dc = 270 mV        (90 %), step = 6 mV            (2 %)
    dcs-000_dcs: dc = 276 mV        (92 %), step = 6 mV            (2 %)
    dcs-000_dcs: dc = 282 mV        (94 %), step = 6 mV            (2 %)
    dcs-000_dcs: dc = 288 mV        (96 %), step = 6 mV            (2 %)
    dcs-000_dcs: dc = 294 mV        (98 %), step = 6 mV            (2 %)
    dcs-000_dcs: dc = 300 mV       (100 %), step = 6 mV            (2 %)

Maximum value achieved for any signal of each quantity: 
V: V(net3) = 300 mV
I: I(V0:p) = 100.9 pA
DC simulation time: CPU = 21.997 ms, elapsed = 51.5411 ms.

Notice from spectre at dc = 300 mV during DC analysis `dcs-000_dcs', during task `MDLControl'.
    The value of parameter 'dc' has been reset to the original value 0.

Total time required for dc analysis `dcs-000_dcs': CPU = 21.997 ms, elapsed = 51.59 ms.
Time accumulated: CPU = 9.14061 s, elapsed = 17.0839 s.
Peak resident memory used = 133 Mbytes.


Aggregate audit (8:16:46 PM, Sun Dec 26, 2021):
Time used: CPU = 9.18 s, elapsed = 17.2 s, util. = 53.3%.
Time spent in licensing: elapsed = 238 ms.
Peak memory used = 134 Mbytes.
Simulation started at: 8:16:29 PM, Sun Dec 26, 2021, ended at: 8:16:46 PM, Sun Dec 26, 2021, with elapsed time (wall clock): 17.2 s.
spectre completes with 0 errors, 269 warnings, and 968 notices.
