
Spectre (R) Circuit Simulator
Version 19.1.0.396.isr8 64bit -- 19 Jun 2020
Copyright (C) 1989-2020 Cadence Design Systems, Inc. All rights reserved worldwide. Cadence and Spectre are registered trademarks of Cadence Design Systems, Inc. All others are the property of their respective holders.

Includes RSA BSAFE(R) Cryptographic or Security Protocol Software from RSA Security, Inc.

User: VLSI_ANALOG   Host: cad19   HostID: 7F0100   PID: 20148
Memory  available: 163.2747 MB  physical: 3.9327 GB
Linux   : Red Hat Enterprise Linux Server release 6.9 (Santiago)
CPU Type: Intel(R) Core(TM) i5-2320 CPU @ 3.00GHz
All processors running at 1600.0 MHz
        Socket: Processors
        0:       0,  1,  2,  3
        
System load averages (1min, 5min, 15min) : 3.2 %, 1.2 %, 0.2 %


Simulating `./input.scs' on cad19 at 9:14:02 AM, Mon Dec 6, 2021 (process id: 20148).
Current working directory: /home/VLSI_ANALOG/UMC180/Designkits/Cadence_6.1/lowpower28/spectremdl/new/dff/dff
Command line:
    /home/installs/SPECTRE191/tools.lnx86/bin/spectre -64 =mdl  \
        input.mdl ./input.scs

Loading /home/installs/SPECTRE191/tools.lnx86/cmi/lib/64bit/5.0/libinfineon_sh.so ...
Loading /home/installs/SPECTRE191/tools.lnx86/cmi/lib/64bit/5.0/libphilips_o_sh.so ...
Loading /home/installs/SPECTRE191/tools.lnx86/cmi/lib/64bit/5.0/libphilips_sh.so ...
Loading /home/installs/SPECTRE191/tools.lnx86/cmi/lib/64bit/5.0/libsparam_sh.so ...
Loading /home/installs/SPECTRE191/tools.lnx86/cmi/lib/64bit/5.0/libstmodels_sh.so ...
Loading /home/installs/SPECTRE191/tools.lnx86/spectre/lib/64bit/mdl/libSpectreEH_sh.so ...
Reading file:  /home/VLSI_ANALOG/UMC180/Designkits/Cadence_6.1/lowpower28/spectremdl/new/dff/dff/input.mdl
Reading file:  /home/VLSI_ANALOG/UMC180/Designkits/Cadence_6.1/lowpower28/spectremdl/new/dff/dff/input.scs
Reading file:  /home/installs/SPECTRE191/tools.lnx86/spectre/etc/configs/spectre.cfg
Reading file:  /home/VLSI_ANALOG/UMCLib/pdk/UMC/28/_G-01-LOGIC_MIXED_MODE28N-HPC/Designkits/Cadence_IC6/G-9FD-LOGIC_MIXED_MODE28N-HPC_UM028FDKHCC0000OA-FDK-Ver.A14_PB/UM028FDKHCC0000OA_A14_DESIGNKIT/UM028FDKHCC0000OA_A14_PB/Models/Spectre/l28hpc_mm_v1201.lib.scs
Reading file:  /home/VLSI_ANALOG/UMCLib/pdk/UMC/28/_G-01-LOGIC_MIXED_MODE28N-HPC/Designkits/Cadence_IC6/G-9FD-LOGIC_MIXED_MODE28N-HPC_UM028FDKHCC0000OA-FDK-Ver.A14_PB/UM028FDKHCC0000OA_A14_DESIGNKIT/UM028FDKHCC0000OA_A14_PB/Models/Spectre/l28hpc_rf_v017.lib.scs
Time for NDB Parsing: CPU = 5.01424 s, elapsed = 7.07483 s.
Time accumulated: CPU = 5.20221 s, elapsed = 7.07483 s.
Peak resident memory used = 215 Mbytes.


Warning from spectre during hierarchy flattening.
    WARNING (SFE-1131): Scope option `scalefactor' specified with scope `TopCircuit' at line `680' has also been specified at line `729' in file `/home/VLSI_ANALOG/UMCLib/pdk/UMC/28/_G-01-LOGIC_MIXED_MODE28N-HPC/Designkits/Cadence_IC6/G-9FD-LOGIC_MIXED_MODE28N-HPC_UM028FDKHCC0000OA-FDK-Ver.A14_PB/UM028FDKHCC0000OA_A14_DESIGNKIT/UM028FDKHCC0000OA_A14_PB/umc28hpc/../Models/Spectre/l28hpc_rf_v017.lib.scs'. As a result, the last specified value will be used for simulation.

Time for Elaboration: CPU = 94.985 ms, elapsed = 117.088 ms.
Time accumulated: CPU = 5.29719 s, elapsed = 7.19213 s.
Peak resident memory used = 229 Mbytes.


Warning from spectre during hierarchy flattening.
    WARNING (SPECTRE-17101): The value 'psf' specified for the 'checklimitdest' option will no longer be supported in future releases. Use 'spectre -h' to see other recommended values for the 'checklimitdest' option.


Time for EDB Visiting: CPU = 2 ms, elapsed = 1.96004 ms.
Time accumulated: CPU = 5.29919 s, elapsed = 7.19427 s.
Peak resident memory used = 230 Mbytes.


Global user options:
         psfversion = 1.4.0
            vabstol = 1e-06
            iabstol = 1e-12
               temp = 27
               gmin = 1e-12
             rforce = 1
           maxnotes = 5
           maxwarns = 5
             digits = 5
               cols = 80
             pivrel = 0.001
           sensfile = ../psf/sens.output
     checklimitdest = psf
               save = all
                pwr = all
        scalefactor = 0.9
             reltol = 0.001
               tnom = 27
             scalem = 1
              scale = 1

Scoped user options:

Circuit inventory:
              nodes 18
              bsim4 28    
          capacitor 2     
              diode 14    
            vsource 3     

Analysis and control statement inventory:
               info 7     
               tran 1     

Output statements:
             .probe 0     
           .measure 0     
               save 0     

Time for parsing: CPU = 4 ms, elapsed = 130.613 ms.
Time accumulated: CPU = 5.30319 s, elapsed = 7.32501 s.
Peak resident memory used = 231 Mbytes.

~~~~~~~~~~~~~~~~~~~~~~
Pre-Simulation Summary
~~~~~~~~~~~~~~~~~~~~~~
~~~~~~~~~~~~~~~~~~~~~~

************************************************
Transient Analysis `trans': time = (0 s -> 1 us)
************************************************
DC simulation time: CPU = 4 ms, elapsed = 4.48108 ms.

Opening the PSFXL file ./input.raw/trans.tran.tran ...
Important parameter values:
    start = 0 s
    outputstart = 0 s
    stop = 1 us
    step = 1 ns
    maxstep = 20 ns
    ic = all
    useprevic = no
    skipdc = no
    reltol = 1e-03
    abstol(V) = 1 uV
    abstol(I) = 1 pA
    temp = 27 C
    tnom = 27 C
    tempeffects = all
    errpreset = moderate
    method = traponly
    lteratio = 3.5
    relref = sigglobal
    cmin = 0 F
    gmin = 1 pS


Output and IC/nodeset summary:
                 save   1       (current)
                 save   116     (voltage)
                 others 44      

......9......8......7......6......5......4......3......2......1......0
Number of accepted tran steps =             435

Maximum value achieved for any signal of each quantity: 
V: V(I14.PM15:int_s) = 368.6 mV
I: I(V0:p) = 12.85 uA
If your circuit contains signals of the same quantity that are vastly different in size (such as high voltage circuitry combined with low voltage control circuitry), you should consider specifying global option `bin_relref=yes'.

~~~~~~~~~~~~~~~~~~~~~~~~~~~~~~~~~
Post-Transient Simulation Summary
~~~~~~~~~~~~~~~~~~~~~~~~~~~~~~~~~
   -   To further speed up simulation, consider
          add ++aps on command line
~~~~~~~~~~~~~~~~~~~~~~~~~~~~~~~~~


During simulation, the CPU load for active processors is :
         0 (73.6 %)      1 (7.6 %)       2 (4.3 %)       3 (4.3 %)
        Total: 89.7%
Initial condition solution time: CPU = 4 ms, elapsed = 4.58407 ms.
Intrinsic tran analysis time:    CPU = 237.965 ms, elapsed = 283.173 ms.
Total time required for tran analysis `trans': CPU = 248.963 ms, elapsed = 304.185 ms.
Time accumulated: CPU = 5.56515 s, elapsed = 7.68814 s.
Peak resident memory used = 237 Mbytes.


Warning from spectre.
    WARNING (SPECTRE-17101): The value 'psf' specified for the 'checklimitdest' option will no longer be supported in future releases. Use 'spectre -h' to see other recommended values for the 'checklimitdest' option.
    WARNING (SPECTRE-17101): The value 'psf' specified for the 'checklimitdest' option will no longer be supported in future releases. Use 'spectre -h' to see other recommended values for the 'checklimitdest' option.
    WARNING (SPECTRE-17101): The value 'psf' specified for the 'checklimitdest' option will no longer be supported in future releases. Use 'spectre -h' to see other recommended values for the 'checklimitdest' option.
    WARNING (SPECTRE-17101): The value 'psf' specified for the 'checklimitdest' option will no longer be supported in future releases. Use 'spectre -h' to see other recommended values for the 'checklimitdest' option.


Opening the PSF file ./input.raw/trans.optimize ...

**********************************************************
Transient Analysis `trans-000_trans': time = (0 s -> 1 us)
**********************************************************

Notice from spectre during IC analysis, during transient analysis `trans-000_trans', during task `MDLControl'.
    GminDC = 1 pS is large enough to noticeably affect the DC solution.
        dV(I14.PM14:int_d) = 121.905 uV
        Use the `gmin_check' option to eliminate or expand this report.

DC simulation time: CPU = 6.999 ms, elapsed = 6.54912 ms.

Opening the PSFXL file ./input.raw/trans-000_trans.tran.tran ...
Important parameter values:
    start = 0 s
    outputstart = 0 s
    stop = 1 us
    step = 1 ns
    maxstep = 20 ns
    ic = all
    useprevic = no
    skipdc = no
    reltol = 1e-03
    abstol(V) = 1 uV
    abstol(I) = 1 pA
    temp = 27 C
    tnom = 27 C
    tempeffects = all
    errpreset = moderate
    method = traponly
    lteratio = 3.5
    relref = sigglobal
    cmin = 0 F
    gmin = 1 pS


Output and IC/nodeset summary:
                 save   1       (current)
                 save   116     (voltage)
                 others 44      

......9

Notice from spectre at time = 100.21 ns during transient analysis `trans-000_trans', during task `MDLControl'.
    Found trapezoidal ringing on node I14.NM0:int_g.
Notice from spectre at time = 100.272 ns during transient analysis `trans-000_trans', during task `MDLControl'.
    Found trapezoidal ringing on node I14.NM0:int_g.

......9.

Notice from spectre at time = 108.369 ns during transient analysis `trans-000_trans', during task `MDLControl'.
    Found trapezoidal ringing on node I14.NM0:int_g.
Notice from spectre at time = 108.377 ns during transient analysis `trans-000_trans', during task `MDLControl'.
    Found trapezoidal ringing on node I14.NM0:int_g.
Notice from spectre at time = 108.537 ns during transient analysis `trans-000_trans', during task `MDLControl'.
    Found trapezoidal ringing on node I14.NM0:int_g.
        Further occurrences of this notice will be suppressed.

......9......8......7......6......5......4......3......2......1......0
Number of accepted tran steps =             410

Notice from spectre during transient analysis `trans-000_trans', during task `MDLControl'.
    Trapezoidal ringing is detected during tran analysis.
        Please use method=trap for better results and performance.


Maximum value achieved for any signal of each quantity: 
V: V(I14.PM14:int_d) = 381.8 mV
I: I(V0:p) = 8.175 uA
If your circuit contains signals of the same quantity that are vastly different in size (such as high voltage circuitry combined with low voltage control circuitry), you should consider specifying global option `bin_relref=yes'.

~~~~~~~~~~~~~~~~~~~~~~~~~~~~~~~~~
Post-Transient Simulation Summary
~~~~~~~~~~~~~~~~~~~~~~~~~~~~~~~~~
   -   To further speed up simulation, consider
          add ++aps on command line
~~~~~~~~~~~~~~~~~~~~~~~~~~~~~~~~~


During simulation, the CPU load for active processors is :
         0 (70.8 %)      1 (7.8 %)       2 (4.8 %)       3 (6.9 %)
        Total: 90.3%
Initial condition solution time: CPU = 6.999 ms, elapsed = 6.62708 ms.
Intrinsic tran analysis time:    CPU = 214.967 ms, elapsed = 244.207 ms.

Warning from spectre during transient analysis `trans-000_trans', during task `MDLControl'.
    WARNING (MDL-2034): line `7': risetime - Rise Time Not Found 

Total time required for tran analysis `trans-000_trans': CPU = 226.966 ms, elapsed = 256.36 ms.
Time accumulated: CPU = 5.99809 s, elapsed = 8.31406 s.
Peak resident memory used = 238 Mbytes.


Notice from spectre during task `MDLControl'.
    21 notices suppressed.
Warning from spectre.
    WARNING (SPECTRE-17101): The value 'psf' specified for the 'checklimitdest' option will no longer be supported in future releases. Use 'spectre -h' to see other recommended values for the 'checklimitdest' option.


**********************************************************
Transient Analysis `trans-000_trans': time = (0 s -> 1 us)
**********************************************************

Notice from spectre during IC analysis, during transient analysis `trans-000_trans', during task `MDLControl'.
    GminDC = 1 pS is large enough to noticeably affect the DC solution.
        dV(I14.PM14:int_d) = 121.761 uV
        Use the `gmin_check' option to eliminate or expand this report.

DC simulation time: CPU = 2.999 ms, elapsed = 3.11399 ms.

Opening the PSFXL file ./input.raw/trans-000_trans.tran.tran ...
Important parameter values:
    start = 0 s
    outputstart = 0 s
    stop = 1 us
    step = 1 ns
    maxstep = 20 ns
    ic = all
    useprevic = no
    skipdc = no
    reltol = 1e-03
    abstol(V) = 1 uV
    abstol(I) = 1 pA
    temp = 27 C
    tnom = 27 C
    tempeffects = all
    errpreset = moderate
    method = traponly
    lteratio = 3.5
    relref = sigglobal
    cmin = 0 F
    gmin = 1 pS


Output and IC/nodeset summary:
                 save   1       (current)
                 save   116     (voltage)
                 others 44      

......9

Notice from spectre at time = 100.21 ns during transient analysis `trans-000_trans', during task `MDLControl'.
    Found trapezoidal ringing on node I14.NM0:int_g.
Notice from spectre at time = 100.272 ns during transient analysis `trans-000_trans', during task `MDLControl'.
    Found trapezoidal ringing on node I14.NM0:int_g.

......9.

Notice from spectre at time = 108.366 ns during transient analysis `trans-000_trans', during task `MDLControl'.
    Found trapezoidal ringing on node I14.NM0:int_g.
Notice from spectre at time = 108.374 ns during transient analysis `trans-000_trans', during task `MDLControl'.
    Found trapezoidal ringing on node I14.NM0:int_g.
Notice from spectre at time = 108.535 ns during transient analysis `trans-000_trans', during task `MDLControl'.
    Found trapezoidal ringing on node I14.NM0:int_g.
        Further occurrences of this notice will be suppressed.

......9......8......7......6......5......4......3......2......1......0
Number of accepted tran steps =             410

Notice from spectre during transient analysis `trans-000_trans', during task `MDLControl'.
    Trapezoidal ringing is detected during tran analysis.
        Please use method=trap for better results and performance.


Maximum value achieved for any signal of each quantity: 
V: V(I14.PM14:int_d) = 381.8 mV
I: I(V0:p) = 8.183 uA
If your circuit contains signals of the same quantity that are vastly different in size (such as high voltage circuitry combined with low voltage control circuitry), you should consider specifying global option `bin_relref=yes'.

~~~~~~~~~~~~~~~~~~~~~~~~~~~~~~~~~
Post-Transient Simulation Summary
~~~~~~~~~~~~~~~~~~~~~~~~~~~~~~~~~
   -   To further speed up simulation, consider
          add ++aps on command line
~~~~~~~~~~~~~~~~~~~~~~~~~~~~~~~~~


During simulation, the CPU load for active processors is :
         0 (68.3 %)      1 (10.6 %)      2 (5.1 %)       3 (7.5 %)
        Total: 91.5%
Initial condition solution time: CPU = 2.999 ms, elapsed = 3.15499 ms.
Intrinsic tran analysis time:    CPU = 232.965 ms, elapsed = 290.671 ms.

Warning from spectre during transient analysis `trans-000_trans', during task `MDLControl'.
    WARNING (MDL-2034): line `7': risetime - Rise Time Not Found 

Total time required for tran analysis `trans-000_trans': CPU = 238.963 ms, elapsed = 296.897 ms.
Time accumulated: CPU = 6.29404 s, elapsed = 8.66873 s.
Peak resident memory used = 238 Mbytes.


Notice from spectre during task `MDLControl'.
    21 notices suppressed.
Warning from spectre.
    WARNING (SPECTRE-17101): The value 'psf' specified for the 'checklimitdest' option will no longer be supported in future releases. Use 'spectre -h' to see other recommended values for the 'checklimitdest' option.
    WARNING (SPECTRE-17101): The value 'psf' specified for the 'checklimitdest' option will no longer be supported in future releases. Use 'spectre -h' to see other recommended values for the 'checklimitdest' option.


**********************************************************
Transient Analysis `trans-000_trans': time = (0 s -> 1 us)
**********************************************************

Notice from spectre during IC analysis, during transient analysis `trans-000_trans', during task `MDLControl'.
    GminDC = 1 pS is large enough to noticeably affect the DC solution.
        dV(I14.PM14:int_d) = 121.905 uV
        Use the `gmin_check' option to eliminate or expand this report.

DC simulation time: CPU = 4 ms, elapsed = 3.34501 ms.

Opening the PSFXL file ./input.raw/trans-000_trans.tran.tran ...
Important parameter values:
    start = 0 s
    outputstart = 0 s
    stop = 1 us
    step = 1 ns
    maxstep = 20 ns
    ic = all
    useprevic = no
    skipdc = no
    reltol = 1e-03
    abstol(V) = 1 uV
    abstol(I) = 1 pA
    temp = 27 C
    tnom = 27 C
    tempeffects = all
    errpreset = moderate
    method = traponly
    lteratio = 3.5
    relref = sigglobal
    cmin = 0 F
    gmin = 1 pS


Output and IC/nodeset summary:
                 save   1       (current)
                 save   116     (voltage)
                 others 44      

......9

Notice from spectre at time = 100.21 ns during transient analysis `trans-000_trans', during task `MDLControl'.
    Found trapezoidal ringing on node I14.NM0:int_g.
Notice from spectre at time = 100.272 ns during transient analysis `trans-000_trans', during task `MDLControl'.
    Found trapezoidal ringing on node I14.NM0:int_g.

......9.

Notice from spectre at time = 108.369 ns during transient analysis `trans-000_trans', during task `MDLControl'.
    Found trapezoidal ringing on node I14.NM0:int_g.
Notice from spectre at time = 108.377 ns during transient analysis `trans-000_trans', during task `MDLControl'.
    Found trapezoidal ringing on node I14.NM0:int_g.
Notice from spectre at time = 108.538 ns during transient analysis `trans-000_trans', during task `MDLControl'.
    Found trapezoidal ringing on node I14.NM0:int_g.
        Further occurrences of this notice will be suppressed.

......9......8......7......6......5......4......3......2......1......0
Number of accepted tran steps =             410

Notice from spectre during transient analysis `trans-000_trans', during task `MDLControl'.
    Trapezoidal ringing is detected during tran analysis.
        Please use method=trap for better results and performance.


Maximum value achieved for any signal of each quantity: 
V: V(I14.PM14:int_d) = 381.8 mV
I: I(V0:p) = 8.175 uA
If your circuit contains signals of the same quantity that are vastly different in size (such as high voltage circuitry combined with low voltage control circuitry), you should consider specifying global option `bin_relref=yes'.

~~~~~~~~~~~~~~~~~~~~~~~~~~~~~~~~~
Post-Transient Simulation Summary
~~~~~~~~~~~~~~~~~~~~~~~~~~~~~~~~~
   -   To further speed up simulation, consider
          add ++aps on command line
~~~~~~~~~~~~~~~~~~~~~~~~~~~~~~~~~


During simulation, the CPU load for active processors is :
         0 (65.8 %)      1 (14.2 %)      2 (5.3 %)       3 (7.2 %)
        Total: 92.5%
Initial condition solution time: CPU = 4 ms, elapsed = 3.39007 ms.
Intrinsic tran analysis time:    CPU = 231.965 ms, elapsed = 284.595 ms.

Warning from spectre during transient analysis `trans-000_trans', during task `MDLControl'.
    WARNING (MDL-2034): line `7': risetime - Rise Time Not Found 

Total time required for tran analysis `trans-000_trans': CPU = 240.964 ms, elapsed = 292.495 ms.
Time accumulated: CPU = 6.63299 s, elapsed = 9.0609 s.
Peak resident memory used = 238 Mbytes.


Notice from spectre during task `MDLControl'.
    20 notices suppressed.
Warning from spectre.
    WARNING (SPECTRE-17101): The value 'psf' specified for the 'checklimitdest' option will no longer be supported in future releases. Use 'spectre -h' to see other recommended values for the 'checklimitdest' option.
    WARNING (SPECTRE-17101): The value 'psf' specified for the 'checklimitdest' option will no longer be supported in future releases. Use 'spectre -h' to see other recommended values for the 'checklimitdest' option.


**********************************************************
Transient Analysis `trans-000_trans': time = (0 s -> 1 us)
**********************************************************

Notice from spectre during IC analysis, during transient analysis `trans-000_trans', during task `MDLControl'.
    GminDC = 1 pS is large enough to noticeably affect the DC solution.
        dV(I14.PM14:int_d) = 121.905 uV
        Use the `gmin_check' option to eliminate or expand this report.

DC simulation time: CPU = 3 ms, elapsed = 3.11208 ms.

Opening the PSFXL file ./input.raw/trans-000_trans.tran.tran ...
Important parameter values:
    start = 0 s
    outputstart = 0 s
    stop = 1 us
    step = 1 ns
    maxstep = 20 ns
    ic = all
    useprevic = no
    skipdc = no
    reltol = 1e-03
    abstol(V) = 1 uV
    abstol(I) = 1 pA
    temp = 27 C
    tnom = 27 C
    tempeffects = all
    errpreset = moderate
    method = traponly
    lteratio = 3.5
    relref = sigglobal
    cmin = 0 F
    gmin = 1 pS


Output and IC/nodeset summary:
                 save   1       (current)
                 save   116     (voltage)
                 others 44      

......9

Notice from spectre at time = 100.21 ns during transient analysis `trans-000_trans', during task `MDLControl'.
    Found trapezoidal ringing on node I14.NM0:int_g.
Notice from spectre at time = 100.273 ns during transient analysis `trans-000_trans', during task `MDLControl'.
    Found trapezoidal ringing on node I14.NM0:int_g.

......9.

Notice from spectre at time = 108.37 ns during transient analysis `trans-000_trans', during task `MDLControl'.
    Found trapezoidal ringing on node I14.NM0:int_g.
Notice from spectre at time = 108.378 ns during transient analysis `trans-000_trans', during task `MDLControl'.
    Found trapezoidal ringing on node I14.NM0:int_g.
Notice from spectre at time = 108.54 ns during transient analysis `trans-000_trans', during task `MDLControl'.
    Found trapezoidal ringing on node I14.NM0:int_g.
        Further occurrences of this notice will be suppressed.

......9......8......7......6......5......4......3......2......1......0
Number of accepted tran steps =             410

Notice from spectre during transient analysis `trans-000_trans', during task `MDLControl'.
    Trapezoidal ringing is detected during tran analysis.
        Please use method=trap for better results and performance.


Maximum value achieved for any signal of each quantity: 
V: V(I14.PM14:int_d) = 381.8 mV
I: I(V0:p) = 8.175 uA
If your circuit contains signals of the same quantity that are vastly different in size (such as high voltage circuitry combined with low voltage control circuitry), you should consider specifying global option `bin_relref=yes'.

~~~~~~~~~~~~~~~~~~~~~~~~~~~~~~~~~
Post-Transient Simulation Summary
~~~~~~~~~~~~~~~~~~~~~~~~~~~~~~~~~
   -   To further speed up simulation, consider
          add ++aps on command line
~~~~~~~~~~~~~~~~~~~~~~~~~~~~~~~~~


During simulation, the CPU load for active processors is :
         0 (63.5 %)      1 (17.3 %)      2 (5.5 %)       3 (7.1 %)
        Total: 93.5%
Initial condition solution time: CPU = 3 ms, elapsed = 3.15905 ms.
Intrinsic tran analysis time:    CPU = 222.966 ms, elapsed = 275.056 ms.

Warning from spectre during transient analysis `trans-000_trans', during task `MDLControl'.
    WARNING (MDL-2034): line `7': risetime - Rise Time Not Found 

Total time required for tran analysis `trans-000_trans': CPU = 227.966 ms, elapsed = 281.253 ms.
Time accumulated: CPU = 6.95994 s, elapsed = 9.44236 s.
Peak resident memory used = 238 Mbytes.


Notice from spectre during task `MDLControl'.
    21 notices suppressed.
Warning from spectre.
    WARNING (SPECTRE-17101): The value 'psf' specified for the 'checklimitdest' option will no longer be supported in future releases. Use 'spectre -h' to see other recommended values for the 'checklimitdest' option.
    WARNING (SPECTRE-17101): The value 'psf' specified for the 'checklimitdest' option will no longer be supported in future releases. Use 'spectre -h' to see other recommended values for the 'checklimitdest' option.


**********************************************************
Transient Analysis `trans-000_trans': time = (0 s -> 1 us)
**********************************************************

Notice from spectre during IC analysis, during transient analysis `trans-000_trans', during task `MDLControl'.
    GminDC = 1 pS is large enough to noticeably affect the DC solution.
        dV(I14.PM14:int_d) = 122.479 uV
        Use the `gmin_check' option to eliminate or expand this report.

DC simulation time: CPU = 3.998 ms, elapsed = 3.15094 ms.

Opening the PSFXL file ./input.raw/trans-000_trans.tran.tran ...
Important parameter values:
    start = 0 s
    outputstart = 0 s
    stop = 1 us
    step = 1 ns
    maxstep = 20 ns
    ic = all
    useprevic = no
    skipdc = no
    reltol = 1e-03
    abstol(V) = 1 uV
    abstol(I) = 1 pA
    temp = 27 C
    tnom = 27 C
    tempeffects = all
    errpreset = moderate
    method = traponly
    lteratio = 3.5
    relref = sigglobal
    cmin = 0 F
    gmin = 1 pS


Output and IC/nodeset summary:
                 save   1       (current)
                 save   116     (voltage)
                 others 44      

......9

Notice from spectre at time = 100.21 ns during transient analysis `trans-000_trans', during task `MDLControl'.
    Found trapezoidal ringing on node I14.NM0:int_g.
Notice from spectre at time = 100.272 ns during transient analysis `trans-000_trans', during task `MDLControl'.
    Found trapezoidal ringing on node I14.NM0:int_g.

......9.

Notice from spectre at time = 108.387 ns during transient analysis `trans-000_trans', during task `MDLControl'.
    Found trapezoidal ringing on node I14.NM0:int_g.
Notice from spectre at time = 108.395 ns during transient analysis `trans-000_trans', during task `MDLControl'.
    Found trapezoidal ringing on node I14.NM0:int_g.
Notice from spectre at time = 108.556 ns during transient analysis `trans-000_trans', during task `MDLControl'.
    Found trapezoidal ringing on node I14.NM0:int_g.
        Further occurrences of this notice will be suppressed.

......9......8......7......6......5......4......3......2......1......0
Number of accepted tran steps =             410

Notice from spectre during transient analysis `trans-000_trans', during task `MDLControl'.
    Trapezoidal ringing is detected during tran analysis.
        Please use method=trap for better results and performance.


Maximum value achieved for any signal of each quantity: 
V: V(I14.PM14:int_d) = 381.8 mV
I: I(V0:p) = 8.173 uA
If your circuit contains signals of the same quantity that are vastly different in size (such as high voltage circuitry combined with low voltage control circuitry), you should consider specifying global option `bin_relref=yes'.

~~~~~~~~~~~~~~~~~~~~~~~~~~~~~~~~~
Post-Transient Simulation Summary
~~~~~~~~~~~~~~~~~~~~~~~~~~~~~~~~~
   -   To further speed up simulation, consider
          add ++aps on command line
~~~~~~~~~~~~~~~~~~~~~~~~~~~~~~~~~


During simulation, the CPU load for active processors is :
         0 (61.2 %)      1 (20.2 %)      2 (5.9 %)       3 (7.0 %)
        Total: 94.3%
Initial condition solution time: CPU = 3.998 ms, elapsed = 3.1991 ms.
Intrinsic tran analysis time:    CPU = 232.965 ms, elapsed = 299.129 ms.

Warning from spectre during transient analysis `trans-000_trans', during task `MDLControl'.
    WARNING (MDL-2034): line `7': risetime - Rise Time Not Found 

Total time required for tran analysis `trans-000_trans': CPU = 239.963 ms, elapsed = 305.384 ms.
Time accumulated: CPU = 7.30289 s, elapsed = 9.85277 s.
Peak resident memory used = 238 Mbytes.


Notice from spectre during task `MDLControl'.
    19 notices suppressed.


**********************************************************
Transient Analysis `trans-000_trans': time = (0 s -> 1 us)
**********************************************************

Notice from spectre during IC analysis, during transient analysis `trans-000_trans', during task `MDLControl'.
    GminDC = 1 pS is large enough to noticeably affect the DC solution.
        dV(I14.PM14:int_d) = 122.479 uV
        Use the `gmin_check' option to eliminate or expand this report.

DC simulation time: CPU = 4 ms, elapsed = 3.29304 ms.

Opening the PSFXL file ./input.raw/trans-000_trans.tran.tran ...
Important parameter values:
    start = 0 s
    outputstart = 0 s
    stop = 1 us
    step = 1 ns
    maxstep = 20 ns
    ic = all
    useprevic = no
    skipdc = no
    reltol = 1e-03
    abstol(V) = 1 uV
    abstol(I) = 1 pA
    temp = 27 C
    tnom = 27 C
    tempeffects = all
    errpreset = moderate
    method = traponly
    lteratio = 3.5
    relref = sigglobal
    cmin = 0 F
    gmin = 1 pS


Output and IC/nodeset summary:
                 save   1       (current)
                 save   116     (voltage)
                 others 44      

......9

Notice from spectre at time = 100.21 ns during transient analysis `trans-000_trans', during task `MDLControl'.
    Found trapezoidal ringing on node I14.NM0:int_g.
Notice from spectre at time = 100.272 ns during transient analysis `trans-000_trans', during task `MDLControl'.
    Found trapezoidal ringing on node I14.NM0:int_g.

......9.

Notice from spectre at time = 108.387 ns during transient analysis `trans-000_trans', during task `MDLControl'.
    Found trapezoidal ringing on node I14.NM0:int_g.
Notice from spectre at time = 108.395 ns during transient analysis `trans-000_trans', during task `MDLControl'.
    Found trapezoidal ringing on node I14.NM0:int_g.
Notice from spectre at time = 108.556 ns during transient analysis `trans-000_trans', during task `MDLControl'.
    Found trapezoidal ringing on node I14.NM0:int_g.
        Further occurrences of this notice will be suppressed.

......9......8......7......6......5......4......3......2......1......0
Number of accepted tran steps =             410

Notice from spectre during transient analysis `trans-000_trans', during task `MDLControl'.
    Trapezoidal ringing is detected during tran analysis.
        Please use method=trap for better results and performance.


Maximum value achieved for any signal of each quantity: 
V: V(I14.PM14:int_d) = 381.8 mV
I: I(V0:p) = 8.173 uA
If your circuit contains signals of the same quantity that are vastly different in size (such as high voltage circuitry combined with low voltage control circuitry), you should consider specifying global option `bin_relref=yes'.

~~~~~~~~~~~~~~~~~~~~~~~~~~~~~~~~~
Post-Transient Simulation Summary
~~~~~~~~~~~~~~~~~~~~~~~~~~~~~~~~~
   -   To further speed up simulation, consider
          add ++aps on command line
~~~~~~~~~~~~~~~~~~~~~~~~~~~~~~~~~


During simulation, the CPU load for active processors is :
         0 (59.5 %)      1 (22.2 %)      2 (6.1 %)       3 (6.8 %)
        Total: 94.7%
Initial condition solution time: CPU = 4 ms, elapsed = 3.33309 ms.
Intrinsic tran analysis time:    CPU = 230.966 ms, elapsed = 286.931 ms.

Warning from spectre during transient analysis `trans-000_trans', during task `MDLControl'.
    WARNING (MDL-2034): line `7': risetime - Rise Time Not Found 

Total time required for tran analysis `trans-000_trans': CPU = 236.964 ms, elapsed = 293.113 ms.
Time accumulated: CPU = 7.54685 s, elapsed = 10.1527 s.
Peak resident memory used = 238 Mbytes.


Notice from spectre during task `MDLControl'.
    19 notices suppressed.


Aggregate audit (9:14:12 AM, Mon Dec 6, 2021):
Time used: CPU = 7.68 s, elapsed = 10.4 s, util. = 73.7%.
Time spent in licensing: elapsed = 221 ms.
Peak memory used = 238 Mbytes.
Simulation started at: 9:14:02 AM, Mon Dec 6, 2021, ended at: 9:14:12 AM, Mon Dec 6, 2021, with elapsed time (wall clock): 10.4 s.
spectre completes with 0 errors, 19 warnings, and 49 notices.
