
Spectre (R) Circuit Simulator
Version 19.1.0.396.isr8 64bit -- 19 Jun 2020
Copyright (C) 1989-2020 Cadence Design Systems, Inc. All rights reserved worldwide. Cadence and Spectre are registered trademarks of Cadence Design Systems, Inc. All others are the property of their respective holders.

Includes RSA BSAFE(R) Cryptographic or Security Protocol Software from RSA Security, Inc.

User: VLSI_ANALOG   Host: cad19   HostID: 7F0100   PID: 10097
Memory  available: 151.6052 MB  physical: 3.9726 GB
Linux   : Red Hat Enterprise Linux Server release 6.9 (Santiago)
CPU Type: Intel(R) Core(TM) i5-2320 CPU @ 3.00GHz
All processors running at 1600.0 MHz
        Socket: Processors
        0:       0,  1,  2,  3
        
System load averages (1min, 5min, 15min) : 9.8 %, 7.0 %, 3.0 %


Simulating `./input.scs' on cad19 at 11:33:56 AM, Tue Dec 21, 2021 (process id: 10097).
Current working directory: /home/VLSI_ANALOG/UMC65/Optimisation/INVM1
Command line:
    /home/installs/SPECTRE191/tools.lnx86/bin/spectre -64 =mdl  \
        input.mdl ./input.scs

Loading /home/installs/SPECTRE191/tools.lnx86/cmi/lib/64bit/5.0/libinfineon_sh.so ...
Loading /home/installs/SPECTRE191/tools.lnx86/cmi/lib/64bit/5.0/libphilips_o_sh.so ...
Loading /home/installs/SPECTRE191/tools.lnx86/cmi/lib/64bit/5.0/libphilips_sh.so ...
Loading /home/installs/SPECTRE191/tools.lnx86/cmi/lib/64bit/5.0/libsparam_sh.so ...
Loading /home/installs/SPECTRE191/tools.lnx86/cmi/lib/64bit/5.0/libstmodels_sh.so ...
Loading /home/installs/SPECTRE191/tools.lnx86/spectre/lib/64bit/mdl/libSpectreEH_sh.so ...
Reading file:  /home/VLSI_ANALOG/UMC65/Optimisation/INVM1/input.mdl
Reading file:  /home/VLSI_ANALOG/UMC65/Optimisation/INVM1/input.scs
Reading file:  /home/installs/SPECTRE191/tools.lnx86/spectre/etc/configs/spectre.cfg
Reading file:  /home/VLSI_ANALOG/UMC65/FDK/Models/Spectre/l65ll_v181.lib.scs

Warning from spectre in `momcaps_symesh_mmkf', during circuit read-in.
    WARNING (SFE-2296): "/home/VLSI_ANALOG/UMC65/FDK/umc65ll/../Models/Spectre/l65ll_v181.lib.scs" 15231: The inline subckt definition `momcaps_symesh_mmkf' does not contain any inline components. The `inline' qualifier will therefore be ignored.
Warning from spectre in `momcaps_asmesh_mmkf', during circuit read-in.
    WARNING (SFE-2296): "/home/VLSI_ANALOG/UMC65/FDK/umc65ll/../Models/Spectre/l65ll_v181.lib.scs" 15317: The inline subckt definition `momcaps_asmesh_mmkf' does not contain any inline components. The `inline' qualifier will therefore be ignored.

Reading file:  /home/VLSI_ANALOG/UMC65/FDK/Models/Spectre/l65ll_res_v131_s.va
Reading link:  /home/installs/SPECTRE191/tools.lnx86/spectre/etc/ahdl/constants.h
Reading file:  /home/installs/SPECTRE191/tools.lnx86/spectre/etc/ahdl/constants.vams
Reading link:  /home/installs/SPECTRE191/tools.lnx86/spectre/etc/ahdl/discipline.h
Reading file:  /home/installs/SPECTRE191/tools.lnx86/spectre/etc/ahdl/disciplines.vams
Reading file:  /home/VLSI_ANALOG/UMC65/FDK/Models/Spectre/L65LL_RVT12_V101_RF.lib.scs
Reading file:  /home/VLSI_ANALOG/UMC65/FDK/Models/Spectre/L65LL_RVT12_V101_RF.mdl.scs
Reading file:  /home/VLSI_ANALOG/UMC65/FDK/Models/Spectre/Rde65.va
Reading file:  /home/VLSI_ANALOG/UMC65/FDK/Models/Spectre/L65LL_HVT12_V101_RF.lib.scs
Reading file:  /home/VLSI_ANALOG/UMC65/FDK/Models/Spectre/L65LL_HVT12_V101_RF.mdl.scs
Reading file:  /home/VLSI_ANALOG/UMC65/FDK/Models/Spectre/Rde_llhvtrfs.va
Reading file:  /home/VLSI_ANALOG/UMC65/FDK/Models/Spectre/L65LL_LVT12_V101_RF.lib.scs
Reading file:  /home/VLSI_ANALOG/UMC65/FDK/Models/Spectre/L65LL_LVT12_V101_RF.mdl.scs
Reading file:  /home/VLSI_ANALOG/UMC65/FDK/Models/Spectre/l65rflvt101s.va
Reading file:  /home/VLSI_ANALOG/UMC65/FDK/Models/Spectre/L65LL_IO18_V101_RF.lib.scs
Reading file:  /home/VLSI_ANALOG/UMC65/FDK/Models/Spectre/L65LL_IO18_V101_RF.mdl.scs
Reading file:  /home/VLSI_ANALOG/UMC65/FDK/Models/Spectre/L65LL_IO25_V101_RF.lib.scs
Reading file:  /home/VLSI_ANALOG/UMC65/FDK/Models/Spectre/L65LL_IO25_V101_RF.mdl.scs
Reading file:  /home/VLSI_ANALOG/UMC65/FDK/Models/Spectre/l65ll_25rf_101_s.va
Reading file:  /home/VLSI_ANALOG/UMC65/FDK/Models/Spectre/L65LL_IO33_V111_RF.lib.scs
Reading file:  /home/VLSI_ANALOG/UMC65/FDK/Models/Spectre/L65LL_IO33_V111_RF.mdl.scs
Reading file:  /home/VLSI_ANALOG/UMC65/FDK/Models/Spectre/Rde65LL_IO33_111.va.scs

Warning from spectre in `p_33_llrf', during circuit read-in.
    WARNING (SFE-2296): "/home/VLSI_ANALOG/UMC65/FDK/umc65ll/../Models/Spectre/L65LL_IO33_V111_RF.mdl.scs" 490: The inline subckt definition `p_33_llrf' does not contain any inline components. The `inline' qualifier will therefore be ignored.

Reading file:  /home/VLSI_ANALOG/UMC65/FDK/Models/Spectre/L65LL_VARMIS12_V111_RF.lib.scs
Reading file:  /home/VLSI_ANALOG/UMC65/FDK/Models/Spectre/L65LL_VARMIS12_V111_RF.mdl.scs
Reading file:  /home/VLSI_ANALOG/UMC65/FDK/Models/Spectre/L65LL_VARMIS18_V111_RF.lib.scs
Reading file:  /home/VLSI_ANALOG/UMC65/FDK/Models/Spectre/L65LL_VARMIS18_V111_RF.mdl.scs
Reading file:  /home/VLSI_ANALOG/UMC65/FDK/Models/Spectre/L65LL_VARMIS25_V121_RF.lib.scs
Reading file:  /home/VLSI_ANALOG/UMC65/FDK/Models/Spectre/L65LL_VARMIS25_V121_RF.mdl.scs
Reading file:  /home/VLSI_ANALOG/UMC65/FDK/Models/Spectre/L65LL_VARMIS33_V111_RF.lib.scs
Reading file:  /home/VLSI_ANALOG/UMC65/FDK/Models/Spectre/L65LL_VARMIS33_V111_RF.mdl.scs
Reading file:  /home/VLSI_ANALOG/UMC65/FDK/Models/Spectre/L65LL_VARDIOP_V101_RF.lib.scs
Reading file:  /home/VLSI_ANALOG/UMC65/FDK/Models/Spectre/L65LL_VARDIOP_V101_RF.mdl.scs
Reading file:  /home/VLSI_ANALOG/UMC65/FDK/Models/Spectre/momcaps_array_vp3_rfvcl_V101.lib.scs
Reading file:  /home/VLSI_ANALOG/UMC65/FDK/Models/Spectre/momcaps_array_vp3_rfvcl_V101.typ.scs
Reading file:  /home/VLSI_ANALOG/UMC65/FDK/Models/Spectre/momcaps_array_vp4_rfvcl_V101.lib.scs
Reading file:  /home/VLSI_ANALOG/UMC65/FDK/Models/Spectre/momcaps_array_vp4_rfvcl_V101.typ.scs
Reading file:  /home/VLSI_ANALOG/UMC65/FDK/Models/Spectre/momcaps_array_vp5_rfvcl_V101.lib.scs
Reading file:  /home/VLSI_ANALOG/UMC65/FDK/Models/Spectre/momcaps_array_vp5_rfvcl_V101.typ.scs
Reading file:  /home/VLSI_ANALOG/UMC65/FDK/Models/Spectre/L65_MIMCAPS_20F_KF_V101_RF.lib.scs
Reading file:  /home/VLSI_ANALOG/UMC65/FDK/Models/Spectre/L65_MIMCAPS_20F_KF_V101_RF.mdl.scs
Reading file:  /home/VLSI_ANALOG/UMC65/FDK/Models/Spectre/L65LL_RNPPO_V101_RF.lib.scs
Reading file:  /home/VLSI_ANALOG/UMC65/FDK/Models/Spectre/L65LL_RNPPO_V101_RF.mdl.scs
Reading file:  /home/VLSI_ANALOG/UMC65/FDK/Models/Spectre/res_poly.va
Reading file:  /home/VLSI_ANALOG/UMC65/FDK/Models/Spectre/L65LL_RNNPO_V101_RF.lib.scs
Reading file:  /home/VLSI_ANALOG/UMC65/FDK/Models/Spectre/L65LL_RNNPO_V101_RF.mdl.scs
Reading file:  /home/VLSI_ANALOG/UMC65/FDK/Models/Spectre/L65LL_RNHR_V101_RF.lib.scs
Reading file:  /home/VLSI_ANALOG/UMC65/FDK/Models/Spectre/L65LL_RNHR_V101_RF.mdl.scs
Reading file:  /home/VLSI_ANALOG/UMC65/FDK/Models/Spectre/L65_pad_rf_V101.lib.scs
Reading file:  /home/VLSI_ANALOG/UMC65/FDK/Models/Spectre/L65_pad_rf_V101.mdl.scs
Time for NDB Parsing: CPU = 228.966 ms, elapsed = 514.839 ms.
Time accumulated: CPU = 381.941 ms, elapsed = 514.843 ms.
Peak resident memory used = 74.5 Mbytes.


Warning from spectre during circuit read-in.
    WARNING (SFE-2654): VerilogA module `respoly_va' override primitive/(verilogA module) `respoly_va'.
    WARNING (SFE-2654): VerilogA module `respoly_va' override primitive/(verilogA module) `respoly_va'.
Warning from spectre in `INVM1':`I0', during hierarchy flattening.
    WARNING (SFE-102): "./input.scs" 59: Parameter `mis_flag', specified for model `n_12_lllvt' of primitive `bsim4', has been ignored because it is an invalid model parameter. Specify a valid model parameter and rerun the simulation. Type `spectre -h bsim4' to get more information on valid model parameters.
    WARNING (SFE-102): "./input.scs" 59: Parameter `mf', specified for model `n_12_lllvt' of primitive `bsim4', has been ignored because it is an invalid model parameter. Specify a valid model parameter and rerun the simulation. Type `spectre -h bsim4' to get more information on valid model parameters.
    WARNING (SFE-102): "./input.scs" 70: Parameter `mis_flag', specified for model `p_12_lllvt' of primitive `bsim4', has been ignored because it is an invalid model parameter. Specify a valid model parameter and rerun the simulation. Type `spectre -h bsim4' to get more information on valid model parameters.
    WARNING (SFE-102): "./input.scs" 70: Parameter `mf', specified for model `p_12_lllvt' of primitive `bsim4', has been ignored because it is an invalid model parameter. Specify a valid model parameter and rerun the simulation. Type `spectre -h bsim4' to get more information on valid model parameters.

Time for Elaboration: CPU = 19.997 ms, elapsed = 20.8211 ms.
Time accumulated: CPU = 402.938 ms, elapsed = 535.814 ms.
Peak resident memory used = 82.6 Mbytes.


Warning from spectre during hierarchy flattening.
    WARNING (SPECTRE-17101): The value 'psf' specified for the 'checklimitdest' option will no longer be supported in future releases. Use 'spectre -h' to see other recommended values for the 'checklimitdest' option.


Time for EDB Visiting: CPU = 0 s, elapsed = 834.942 us.
Time accumulated: CPU = 403.938 ms, elapsed = 536.807 ms.
Peak resident memory used = 83.5 Mbytes.


Global user options:
         psfversion = 1.4.0
            vabstol = 1e-06
            iabstol = 1e-12
               temp = 27
               gmin = 1e-12
             rforce = 1
           maxnotes = 5
           maxwarns = 5
             digits = 5
               cols = 80
             pivrel = 0.001
           sensfile = ../psf/sens.output
     checklimitdest = psf
               save = all
                pwr = all
           currents = all
             reltol = 0.001
               tnom = 27
             scalem = 1
              scale = 1

Scoped user options:

Circuit inventory:
              nodes 3
              bsim4 2     
          capacitor 1     
            vsource 2     

Analysis and control statement inventory:
                 dc 2     
               info 8     
               tran 1     

Output statements:
             .probe 0     
           .measure 0     
               save 0     

Time for parsing: CPU = 3 ms, elapsed = 86.9758 ms.
Time accumulated: CPU = 407.937 ms, elapsed = 623.913 ms.
Peak resident memory used = 85.1 Mbytes.

~~~~~~~~~~~~~~~~~~~~~~
Pre-Simulation Summary
~~~~~~~~~~~~~~~~~~~~~~
~~~~~~~~~~~~~~~~~~~~~~

************************************************
Transient Analysis `trans': time = (0 s -> 2 us)
************************************************
DC simulation time: CPU = 1 ms, elapsed = 787.973 us.

Opening the PSFXL file ./input.raw/trans.tran.tran ...
Important parameter values:
    start = 0 s
    outputstart = 0 s
    stop = 2 us
    step = 2 ns
    maxstep = 40 ns
    ic = all
    useprevic = no
    skipdc = no
    reltol = 1e-03
    abstol(V) = 1 uV
    abstol(I) = 1 pA
    temp = 27 C
    tnom = 27 C
    tempeffects = all
    errpreset = moderate
    method = traponly
    lteratio = 3.5
    relref = sigglobal
    cmin = 0 F
    gmin = 1 pS


Output and IC/nodeset summary:
                 save   11      (current)
                 save   7       (voltage)
                 others 4       


Notice from spectre at time = 5.06109 ps during transient analysis `trans', during task `MDLControl'.
    Found trapezoidal ringing on node I0.NM0:int_s.
Notice from spectre at time = 9.086 ps during transient analysis `trans', during task `MDLControl'.
    Found trapezoidal ringing on node I0.NM0:int_s.
Notice from spectre at time = 17.1358 ps during transient analysis `trans', during task `MDLControl'.
    Found trapezoidal ringing on node I0.NM0:int_s.
Notice from spectre at time = 33.2354 ps during transient analysis `trans', during task `MDLControl'.
    Found trapezoidal ringing on node I0.NM0:int_s.
Notice from spectre at time = 65.4347 ps during transient analysis `trans', during task `MDLControl'.
    Found trapezoidal ringing on node I0.NM0:int_s.
        Further occurrences of this notice will be suppressed.

......9......8......7......6......5
`AutoStop = yes'. Analysis finished at 1 us.

Number of accepted tran steps =             104

Notice from spectre during transient analysis `trans', during task `MDLControl'.
    Trapezoidal ringing is detected during tran analysis.
        Please use method=trap for better results and performance.


Maximum value achieved for any signal of each quantity: 
V: V(I0.NM0:int_d) = 313 mV
I: I(V1:p) = 1.409 mA
If your circuit contains signals of the same quantity that are vastly different in size (such as high voltage circuitry combined with low voltage control circuitry), you should consider specifying global option `bin_relref=yes'.

~~~~~~~~~~~~~~~~~~~~~~~~~~~~~~~~~
Post-Transient Simulation Summary
~~~~~~~~~~~~~~~~~~~~~~~~~~~~~~~~~
   -   To further speed up simulation, consider
          add ++aps on command line
~~~~~~~~~~~~~~~~~~~~~~~~~~~~~~~~~


During simulation, the CPU load for active processors is :
         0 (10.2 %)      1 (43.5 %)      2 (4.9 %)       3 (1.6 %)
        Total: 60.2%
Initial condition solution time: CPU = 1 ms, elapsed = 885.963 us.
Intrinsic tran analysis time:    CPU = 20.997 ms, elapsed = 55.7091 ms.
Total time required for tran analysis `trans': CPU = 26.996 ms, elapsed = 61.47 ms.
Time accumulated: CPU = 439.933 ms, elapsed = 693.354 ms.
Peak resident memory used = 88.9 Mbytes.


Notice from spectre during task `MDLControl'.
    28 notices suppressed.


******************************************
DC Analysis `dcs': V1:dc = (0 V -> 300 mV)
******************************************

Warning from spectre during DC analysis `dcs', during task `MDLControl'.
    WARNING (MDL-1565): validate object failure -- parameter or terminal 'I23' not found in specified scope.
    WARNING (MDL-1101): line `46': MDL expression for identifier 'max_dc_pwr' can not be evaluated due to previous errors.


Opening the PSF file ./input.raw/dcs.dc ...
Important parameter values:
    reltol = 1e-03
    abstol(V) = 1 uV
    abstol(I) = 1 pA
    temp = 27 C
    tnom = 27 C
    tempeffects = all
    gmindc = 1 pS
    dcs: dc = 12 mV          (4 %), step = 6 mV            (2 %)
    dcs: dc = 18 mV          (6 %), step = 6 mV            (2 %)
    dcs: dc = 24 mV          (8 %), step = 6 mV            (2 %)
    dcs: dc = 30 mV         (10 %), step = 6 mV            (2 %)
    dcs: dc = 36 mV         (12 %), step = 6 mV            (2 %)
    dcs: dc = 42 mV         (14 %), step = 6 mV            (2 %)
    dcs: dc = 48 mV         (16 %), step = 6 mV            (2 %)
    dcs: dc = 54 mV         (18 %), step = 6 mV            (2 %)
    dcs: dc = 60 mV         (20 %), step = 6 mV            (2 %)
    dcs: dc = 66 mV         (22 %), step = 6 mV            (2 %)
    dcs: dc = 72 mV         (24 %), step = 6 mV            (2 %)
    dcs: dc = 78 mV         (26 %), step = 6 mV            (2 %)
    dcs: dc = 84 mV         (28 %), step = 6 mV            (2 %)
    dcs: dc = 90 mV         (30 %), step = 6 mV            (2 %)
    dcs: dc = 96 mV         (32 %), step = 6 mV            (2 %)
    dcs: dc = 102 mV        (34 %), step = 6 mV            (2 %)
    dcs: dc = 108 mV        (36 %), step = 6 mV            (2 %)
    dcs: dc = 114 mV        (38 %), step = 6 mV            (2 %)
    dcs: dc = 120 mV        (40 %), step = 6 mV            (2 %)
    dcs: dc = 126 mV        (42 %), step = 6 mV            (2 %)
    dcs: dc = 132 mV        (44 %), step = 6 mV            (2 %)
    dcs: dc = 138 mV        (46 %), step = 6 mV            (2 %)
    dcs: dc = 144 mV        (48 %), step = 6 mV            (2 %)
    dcs: dc = 150 mV        (50 %), step = 6 mV            (2 %)
    dcs: dc = 156 mV        (52 %), step = 6 mV            (2 %)
    dcs: dc = 162 mV        (54 %), step = 6 mV            (2 %)
    dcs: dc = 168 mV        (56 %), step = 6 mV            (2 %)
    dcs: dc = 174 mV        (58 %), step = 6 mV            (2 %)
    dcs: dc = 180 mV        (60 %), step = 6 mV            (2 %)
    dcs: dc = 186 mV        (62 %), step = 6 mV            (2 %)
    dcs: dc = 192 mV        (64 %), step = 6 mV            (2 %)
    dcs: dc = 198 mV        (66 %), step = 6 mV            (2 %)
    dcs: dc = 204 mV        (68 %), step = 6 mV            (2 %)
    dcs: dc = 210 mV        (70 %), step = 6 mV            (2 %)
    dcs: dc = 216 mV        (72 %), step = 6 mV            (2 %)
    dcs: dc = 222 mV        (74 %), step = 6 mV            (2 %)
    dcs: dc = 228 mV        (76 %), step = 6 mV            (2 %)
    dcs: dc = 234 mV        (78 %), step = 6 mV            (2 %)
    dcs: dc = 240 mV        (80 %), step = 6 mV            (2 %)
    dcs: dc = 246 mV        (82 %), step = 6 mV            (2 %)
    dcs: dc = 252 mV        (84 %), step = 6 mV            (2 %)
    dcs: dc = 258 mV        (86 %), step = 6 mV            (2 %)
    dcs: dc = 264 mV        (88 %), step = 6 mV            (2 %)
    dcs: dc = 270 mV        (90 %), step = 6 mV            (2 %)
    dcs: dc = 276 mV        (92 %), step = 6 mV            (2 %)
    dcs: dc = 282 mV        (94 %), step = 6 mV            (2 %)
    dcs: dc = 288 mV        (96 %), step = 6 mV            (2 %)
    dcs: dc = 294 mV        (98 %), step = 6 mV            (2 %)
    dcs: dc = 300 mV       (100 %), step = 6 mV            (2 %)

Maximum value achieved for any signal of each quantity: 
V: V(net5) = 300 mV
I: I(V0:p) = 141.2 pA
DC simulation time: CPU = 15.998 ms, elapsed = 47.5831 ms.

Notice from spectre at dc = 300 mV during DC analysis `dcs', during task `MDLControl'.
    The value of parameter 'dc' has been reset to the original value 0.

Total time required for dc analysis `dcs': CPU = 15.998 ms, elapsed = 47.626 ms.
Time accumulated: CPU = 458.93 ms, elapsed = 772.92 ms.
Peak resident memory used = 89.2 Mbytes.


Warning from spectre.
    WARNING (SPECTRE-17101): The value 'psf' specified for the 'checklimitdest' option will no longer be supported in future releases. Use 'spectre -h' to see other recommended values for the 'checklimitdest' option.
    WARNING (SPECTRE-17101): The value 'psf' specified for the 'checklimitdest' option will no longer be supported in future releases. Use 'spectre -h' to see other recommended values for the 'checklimitdest' option.
    WARNING (SPECTRE-17101): The value 'psf' specified for the 'checklimitdest' option will no longer be supported in future releases. Use 'spectre -h' to see other recommended values for the 'checklimitdest' option.


Opening the PSF file ./input.raw/trans.optimize ...

**********************************************************
Transient Analysis `trans-000_trans': time = (0 s -> 2 us)
**********************************************************
DC simulation time: CPU = 0 s, elapsed = 370.026 us.

Opening the PSFXL file ./input.raw/trans-000_trans.tran.tran ...
Important parameter values:
    start = 0 s
    outputstart = 0 s
    stop = 2 us
    step = 2 ns
    maxstep = 40 ns
    ic = all
    useprevic = no
    skipdc = no
    reltol = 1e-03
    abstol(V) = 1 uV
    abstol(I) = 1 pA
    temp = 27 C
    tnom = 27 C
    tempeffects = all
    errpreset = moderate
    method = traponly
    lteratio = 3.5
    relref = sigglobal
    cmin = 0 F
    gmin = 1 pS


Output and IC/nodeset summary:
                 save   11      (current)
                 save   7       (voltage)
                 others 4       


Notice from spectre at time = 4.78399 ps during transient analysis `trans-000_trans', during task `MDLControl'.
    Found trapezoidal ringing on node I0.NM0:int_s.
Notice from spectre at time = 8.48823 ps during transient analysis `trans-000_trans', during task `MDLControl'.
    Found trapezoidal ringing on node I0.NM0:int_s.
Notice from spectre at time = 15.8914 ps during transient analysis `trans-000_trans', during task `MDLControl'.
    Found trapezoidal ringing on node I0.NM0:int_s.
Notice from spectre at time = 30.6649 ps during transient analysis `trans-000_trans', during task `MDLControl'.
    Found trapezoidal ringing on node I0.NM0:int_s.
Notice from spectre at time = 60.1536 ps during transient analysis `trans-000_trans', during task `MDLControl'.
    Found trapezoidal ringing on node I0.NM0:int_s.
        Further occurrences of this notice will be suppressed.

......9......8......7......6......5
`AutoStop = yes'. Analysis finished at 1 us.

Number of accepted tran steps =             109

Notice from spectre during transient analysis `trans-000_trans', during task `MDLControl'.
    Trapezoidal ringing is detected during tran analysis.
        Please use method=trap for better results and performance.


Maximum value achieved for any signal of each quantity: 
V: V(I0.NM0:int_d) = 307.7 mV
I: I(V1:p) = 775.6 uA
If your circuit contains signals of the same quantity that are vastly different in size (such as high voltage circuitry combined with low voltage control circuitry), you should consider specifying global option `bin_relref=yes'.

~~~~~~~~~~~~~~~~~~~~~~~~~~~~~~~~~
Post-Transient Simulation Summary
~~~~~~~~~~~~~~~~~~~~~~~~~~~~~~~~~
   -   To further speed up simulation, consider
          add ++aps on command line
~~~~~~~~~~~~~~~~~~~~~~~~~~~~~~~~~


During simulation, the CPU load for active processors is :
         0 (18.1 %)      1 (33.7 %)      2 (4.7 %)       3 (5.9 %)
        Total: 62.3%
Initial condition solution time: CPU = 0 s, elapsed = 447.035 us.
Intrinsic tran analysis time:    CPU = 18.997 ms, elapsed = 48.4591 ms.
Total time required for tran analysis `trans-000_trans': CPU = 21.996 ms, elapsed = 51.909 ms.
Time accumulated: CPU = 490.924 ms, elapsed = 937.147 ms.
Peak resident memory used = 89.6 Mbytes.


Notice from spectre during task `MDLControl'.
    37 notices suppressed.


Opening the PSF file ./input.raw/dcs.optimize ...

**************************************************
DC Analysis `dcs-000_dcs': V1:dc = (0 V -> 300 mV)
**************************************************

Warning from spectre during DC analysis `dcs-000_dcs', during task `MDLControl'.
    WARNING (MDL-1565): validate object failure -- parameter or terminal 'I23' not found in specified scope.
    WARNING (MDL-1101): line `46': MDL expression for identifier 'max_dc_pwr' can not be evaluated due to previous errors.


Opening the PSF file ./input.raw/dcs-000_dcs.dc ...
Important parameter values:
    reltol = 1e-03
    abstol(V) = 1 uV
    abstol(I) = 1 pA
    temp = 27 C
    tnom = 27 C
    tempeffects = all
    gmindc = 1 pS
    dcs-000_dcs: dc = 12 mV          (4 %), step = 6 mV            (2 %)
    dcs-000_dcs: dc = 18 mV          (6 %), step = 6 mV            (2 %)
    dcs-000_dcs: dc = 24 mV          (8 %), step = 6 mV            (2 %)
    dcs-000_dcs: dc = 30 mV         (10 %), step = 6 mV            (2 %)
    dcs-000_dcs: dc = 36 mV         (12 %), step = 6 mV            (2 %)
    dcs-000_dcs: dc = 42 mV         (14 %), step = 6 mV            (2 %)
    dcs-000_dcs: dc = 48 mV         (16 %), step = 6 mV            (2 %)
    dcs-000_dcs: dc = 54 mV         (18 %), step = 6 mV            (2 %)
    dcs-000_dcs: dc = 60 mV         (20 %), step = 6 mV            (2 %)
    dcs-000_dcs: dc = 66 mV         (22 %), step = 6 mV            (2 %)
    dcs-000_dcs: dc = 72 mV         (24 %), step = 6 mV            (2 %)
    dcs-000_dcs: dc = 78 mV         (26 %), step = 6 mV            (2 %)
    dcs-000_dcs: dc = 84 mV         (28 %), step = 6 mV            (2 %)
    dcs-000_dcs: dc = 90 mV         (30 %), step = 6 mV            (2 %)
    dcs-000_dcs: dc = 96 mV         (32 %), step = 6 mV            (2 %)
    dcs-000_dcs: dc = 102 mV        (34 %), step = 6 mV            (2 %)
    dcs-000_dcs: dc = 108 mV        (36 %), step = 6 mV            (2 %)
    dcs-000_dcs: dc = 114 mV        (38 %), step = 6 mV            (2 %)
    dcs-000_dcs: dc = 120 mV        (40 %), step = 6 mV            (2 %)
    dcs-000_dcs: dc = 126 mV        (42 %), step = 6 mV            (2 %)
    dcs-000_dcs: dc = 132 mV        (44 %), step = 6 mV            (2 %)
    dcs-000_dcs: dc = 138 mV        (46 %), step = 6 mV            (2 %)
    dcs-000_dcs: dc = 144 mV        (48 %), step = 6 mV            (2 %)
    dcs-000_dcs: dc = 150 mV        (50 %), step = 6 mV            (2 %)
    dcs-000_dcs: dc = 156 mV        (52 %), step = 6 mV            (2 %)
    dcs-000_dcs: dc = 162 mV        (54 %), step = 6 mV            (2 %)
    dcs-000_dcs: dc = 168 mV        (56 %), step = 6 mV            (2 %)
    dcs-000_dcs: dc = 174 mV        (58 %), step = 6 mV            (2 %)
    dcs-000_dcs: dc = 180 mV        (60 %), step = 6 mV            (2 %)
    dcs-000_dcs: dc = 186 mV        (62 %), step = 6 mV            (2 %)
    dcs-000_dcs: dc = 192 mV        (64 %), step = 6 mV            (2 %)
    dcs-000_dcs: dc = 198 mV        (66 %), step = 6 mV            (2 %)
    dcs-000_dcs: dc = 204 mV        (68 %), step = 6 mV            (2 %)
    dcs-000_dcs: dc = 210 mV        (70 %), step = 6 mV            (2 %)
    dcs-000_dcs: dc = 216 mV        (72 %), step = 6 mV            (2 %)
    dcs-000_dcs: dc = 222 mV        (74 %), step = 6 mV            (2 %)
    dcs-000_dcs: dc = 228 mV        (76 %), step = 6 mV            (2 %)
    dcs-000_dcs: dc = 234 mV        (78 %), step = 6 mV            (2 %)
    dcs-000_dcs: dc = 240 mV        (80 %), step = 6 mV            (2 %)
    dcs-000_dcs: dc = 246 mV        (82 %), step = 6 mV            (2 %)
    dcs-000_dcs: dc = 252 mV        (84 %), step = 6 mV            (2 %)
    dcs-000_dcs: dc = 258 mV        (86 %), step = 6 mV            (2 %)
    dcs-000_dcs: dc = 264 mV        (88 %), step = 6 mV            (2 %)
    dcs-000_dcs: dc = 270 mV        (90 %), step = 6 mV            (2 %)
    dcs-000_dcs: dc = 276 mV        (92 %), step = 6 mV            (2 %)
    dcs-000_dcs: dc = 282 mV        (94 %), step = 6 mV            (2 %)
    dcs-000_dcs: dc = 288 mV        (96 %), step = 6 mV            (2 %)
    dcs-000_dcs: dc = 294 mV        (98 %), step = 6 mV            (2 %)
    dcs-000_dcs: dc = 300 mV       (100 %), step = 6 mV            (2 %)

Maximum value achieved for any signal of each quantity: 
V: V(net5) = 300 mV
I: I(V0:p) = 141.2 pA
DC simulation time: CPU = 19.997 ms, elapsed = 49.448 ms.

Notice from spectre at dc = 300 mV during DC analysis `dcs-000_dcs', during task `MDLControl'.
    The value of parameter 'dc' has been reset to the original value 0.

Total time required for dc analysis `dcs-000_dcs': CPU = 19.997 ms, elapsed = 49.4881 ms.
Time accumulated: CPU = 514.921 ms, elapsed = 1.05142 s.
Peak resident memory used = 89.6 Mbytes.


Warning from spectre.
    WARNING (SFE-421): Undefined parameter name `dcs'.
    WARNING (MDL-1565): validate object failure -- parameter or terminal 'dcs' not found in specified scope.
    WARNING (MDL-1101): line `78': MDL expression for identifier 'tmp3' can not be evaluated due to previous errors.
    WARNING (SPECTRE-17101): The value 'psf' specified for the 'checklimitdest' option will no longer be supported in future releases. Use 'spectre -h' to see other recommended values for the 'checklimitdest' option.


**********************************************************
Transient Analysis `trans-000_trans': time = (0 s -> 2 us)
**********************************************************
DC simulation time: CPU = 0 s, elapsed = 229.836 us.

Opening the PSFXL file ./input.raw/trans-000_trans.tran.tran ...
Important parameter values:
    start = 0 s
    outputstart = 0 s
    stop = 2 us
    step = 2 ns
    maxstep = 40 ns
    ic = all
    useprevic = no
    skipdc = no
    reltol = 1e-03
    abstol(V) = 1 uV
    abstol(I) = 1 pA
    temp = 27 C
    tnom = 27 C
    tempeffects = all
    errpreset = moderate
    method = traponly
    lteratio = 3.5
    relref = sigglobal
    cmin = 0 F
    gmin = 1 pS


Output and IC/nodeset summary:
                 save   11      (current)
                 save   7       (voltage)
                 others 4       


Notice from spectre at time = 4.78708 ps during transient analysis `trans-000_trans', during task `MDLControl'.
    Found trapezoidal ringing on node I0.NM0:int_s.
Notice from spectre at time = 8.49528 ps during transient analysis `trans-000_trans', during task `MDLControl'.
    Found trapezoidal ringing on node I0.NM0:int_s.
Notice from spectre at time = 15.9072 ps during transient analysis `trans-000_trans', during task `MDLControl'.
    Found trapezoidal ringing on node I0.NM0:int_s.
Notice from spectre at time = 30.7 ps during transient analysis `trans-000_trans', during task `MDLControl'.
    Found trapezoidal ringing on node I0.NM0:int_s.
Notice from spectre at time = 60.2307 ps during transient analysis `trans-000_trans', during task `MDLControl'.
    Found trapezoidal ringing on node I0.NM0:int_s.
        Further occurrences of this notice will be suppressed.

......9......8......7......6......5
`AutoStop = yes'. Analysis finished at 1 us.

Number of accepted tran steps =             110

Notice from spectre during transient analysis `trans-000_trans', during task `MDLControl'.
    Trapezoidal ringing is detected during tran analysis.
        Please use method=trap for better results and performance.


Maximum value achieved for any signal of each quantity: 
V: V(I0.NM0:int_d) = 307.9 mV
I: I(V1:p) = 796.2 uA
If your circuit contains signals of the same quantity that are vastly different in size (such as high voltage circuitry combined with low voltage control circuitry), you should consider specifying global option `bin_relref=yes'.

~~~~~~~~~~~~~~~~~~~~~~~~~~~~~~~~~
Post-Transient Simulation Summary
~~~~~~~~~~~~~~~~~~~~~~~~~~~~~~~~~
   -   To further speed up simulation, consider
          add ++aps on command line
~~~~~~~~~~~~~~~~~~~~~~~~~~~~~~~~~


During simulation, the CPU load for active processors is :
         0 (22.0 %)      1 (30.1 %)      2 (4.9 %)       3 (5.8 %)
        Total: 62.7%
Initial condition solution time: CPU = 999 us, elapsed = 365.973 us.
Intrinsic tran analysis time:    CPU = 19.997 ms, elapsed = 49.9041 ms.
Total time required for tran analysis `trans-000_trans': CPU = 23.996 ms, elapsed = 52.4921 ms.
Time accumulated: CPU = 541.917 ms, elapsed = 1.10701 s.
Peak resident memory used = 89.8 Mbytes.


Notice from spectre during task `MDLControl'.
    40 notices suppressed.


**************************************************
DC Analysis `dcs-000_dcs': V1:dc = (0 V -> 300 mV)
**************************************************

Warning from spectre during DC analysis `dcs-000_dcs', during task `MDLControl'.
    WARNING (MDL-1565): validate object failure -- parameter or terminal 'I23' not found in specified scope.
    WARNING (MDL-1101): line `46': MDL expression for identifier 'max_dc_pwr' can not be evaluated due to previous errors.


Opening the PSF file ./input.raw/dcs-000_dcs.dc ...
Important parameter values:
    reltol = 1e-03
    abstol(V) = 1 uV
    abstol(I) = 1 pA
    temp = 27 C
    tnom = 27 C
    tempeffects = all
    gmindc = 1 pS
    dcs-000_dcs: dc = 12 mV          (4 %), step = 6 mV            (2 %)
    dcs-000_dcs: dc = 18 mV          (6 %), step = 6 mV            (2 %)
    dcs-000_dcs: dc = 24 mV          (8 %), step = 6 mV            (2 %)
    dcs-000_dcs: dc = 30 mV         (10 %), step = 6 mV            (2 %)
    dcs-000_dcs: dc = 36 mV         (12 %), step = 6 mV            (2 %)
    dcs-000_dcs: dc = 42 mV         (14 %), step = 6 mV            (2 %)
    dcs-000_dcs: dc = 48 mV         (16 %), step = 6 mV            (2 %)
    dcs-000_dcs: dc = 54 mV         (18 %), step = 6 mV            (2 %)
    dcs-000_dcs: dc = 60 mV         (20 %), step = 6 mV            (2 %)
    dcs-000_dcs: dc = 66 mV         (22 %), step = 6 mV            (2 %)
    dcs-000_dcs: dc = 72 mV         (24 %), step = 6 mV            (2 %)
    dcs-000_dcs: dc = 78 mV         (26 %), step = 6 mV            (2 %)
    dcs-000_dcs: dc = 84 mV         (28 %), step = 6 mV            (2 %)
    dcs-000_dcs: dc = 90 mV         (30 %), step = 6 mV            (2 %)
    dcs-000_dcs: dc = 96 mV         (32 %), step = 6 mV            (2 %)
    dcs-000_dcs: dc = 102 mV        (34 %), step = 6 mV            (2 %)
    dcs-000_dcs: dc = 108 mV        (36 %), step = 6 mV            (2 %)
    dcs-000_dcs: dc = 114 mV        (38 %), step = 6 mV            (2 %)
    dcs-000_dcs: dc = 120 mV        (40 %), step = 6 mV            (2 %)
    dcs-000_dcs: dc = 126 mV        (42 %), step = 6 mV            (2 %)
    dcs-000_dcs: dc = 132 mV        (44 %), step = 6 mV            (2 %)
    dcs-000_dcs: dc = 138 mV        (46 %), step = 6 mV            (2 %)
    dcs-000_dcs: dc = 144 mV        (48 %), step = 6 mV            (2 %)
    dcs-000_dcs: dc = 150 mV        (50 %), step = 6 mV            (2 %)
    dcs-000_dcs: dc = 156 mV        (52 %), step = 6 mV            (2 %)
    dcs-000_dcs: dc = 162 mV        (54 %), step = 6 mV            (2 %)
    dcs-000_dcs: dc = 168 mV        (56 %), step = 6 mV            (2 %)
    dcs-000_dcs: dc = 174 mV        (58 %), step = 6 mV            (2 %)
    dcs-000_dcs: dc = 180 mV        (60 %), step = 6 mV            (2 %)
    dcs-000_dcs: dc = 186 mV        (62 %), step = 6 mV            (2 %)
    dcs-000_dcs: dc = 192 mV        (64 %), step = 6 mV            (2 %)
    dcs-000_dcs: dc = 198 mV        (66 %), step = 6 mV            (2 %)
    dcs-000_dcs: dc = 204 mV        (68 %), step = 6 mV            (2 %)
    dcs-000_dcs: dc = 210 mV        (70 %), step = 6 mV            (2 %)
    dcs-000_dcs: dc = 216 mV        (72 %), step = 6 mV            (2 %)
    dcs-000_dcs: dc = 222 mV        (74 %), step = 6 mV            (2 %)
    dcs-000_dcs: dc = 228 mV        (76 %), step = 6 mV            (2 %)
    dcs-000_dcs: dc = 234 mV        (78 %), step = 6 mV            (2 %)
    dcs-000_dcs: dc = 240 mV        (80 %), step = 6 mV            (2 %)
    dcs-000_dcs: dc = 246 mV        (82 %), step = 6 mV            (2 %)
    dcs-000_dcs: dc = 252 mV        (84 %), step = 6 mV            (2 %)
    dcs-000_dcs: dc = 258 mV        (86 %), step = 6 mV            (2 %)
    dcs-000_dcs: dc = 264 mV        (88 %), step = 6 mV            (2 %)
    dcs-000_dcs: dc = 270 mV        (90 %), step = 6 mV            (2 %)
    dcs-000_dcs: dc = 276 mV        (92 %), step = 6 mV            (2 %)
    dcs-000_dcs: dc = 282 mV        (94 %), step = 6 mV            (2 %)
    dcs-000_dcs: dc = 288 mV        (96 %), step = 6 mV            (2 %)
    dcs-000_dcs: dc = 294 mV        (98 %), step = 6 mV            (2 %)
    dcs-000_dcs: dc = 300 mV       (100 %), step = 6 mV            (2 %)

Maximum value achieved for any signal of each quantity: 
V: V(net5) = 300 mV
I: I(V0:p) = 145.8 pA
DC simulation time: CPU = 12.997 ms, elapsed = 48.2831 ms.

Notice from spectre at dc = 300 mV during DC analysis `dcs-000_dcs', during task `MDLControl'.
    The value of parameter 'dc' has been reset to the original value 0.

Total time required for dc analysis `dcs-000_dcs': CPU = 12.997 ms, elapsed = 48.3251 ms.
Time accumulated: CPU = 555.914 ms, elapsed = 1.15595 s.
Peak resident memory used = 89.8 Mbytes.


Warning from spectre.
    WARNING (SPECTRE-17101): The value 'psf' specified for the 'checklimitdest' option will no longer be supported in future releases. Use 'spectre -h' to see other recommended values for the 'checklimitdest' option.
    WARNING (SPECTRE-17101): The value 'psf' specified for the 'checklimitdest' option will no longer be supported in future releases. Use 'spectre -h' to see other recommended values for the 'checklimitdest' option.


**********************************************************
Transient Analysis `trans-000_trans': time = (0 s -> 2 us)
**********************************************************
DC simulation time: CPU = 0 s, elapsed = 249.147 us.

Opening the PSFXL file ./input.raw/trans-000_trans.tran.tran ...
Important parameter values:
    start = 0 s
    outputstart = 0 s
    stop = 2 us
    step = 2 ns
    maxstep = 40 ns
    ic = all
    useprevic = no
    skipdc = no
    reltol = 1e-03
    abstol(V) = 1 uV
    abstol(I) = 1 pA
    temp = 27 C
    tnom = 27 C
    tempeffects = all
    errpreset = moderate
    method = traponly
    lteratio = 3.5
    relref = sigglobal
    cmin = 0 F
    gmin = 1 pS


Output and IC/nodeset summary:
                 save   11      (current)
                 save   7       (voltage)
                 others 4       


Notice from spectre at time = 4.82678 ps during transient analysis `trans-000_trans', during task `MDLControl'.
    Found trapezoidal ringing on node I0.NM0:int_s.
Notice from spectre at time = 8.59776 ps during transient analysis `trans-000_trans', during task `MDLControl'.
    Found trapezoidal ringing on node I0.NM0:int_s.
Notice from spectre at time = 16.1397 ps during transient analysis `trans-000_trans', during task `MDLControl'.
    Found trapezoidal ringing on node I0.NM0:int_s.
Notice from spectre at time = 31.2237 ps during transient analysis `trans-000_trans', during task `MDLControl'.
    Found trapezoidal ringing on node I0.NM0:int_s.
Notice from spectre at time = 61.3915 ps during transient analysis `trans-000_trans', during task `MDLControl'.
    Found trapezoidal ringing on node I0.NM0:int_s.
        Further occurrences of this notice will be suppressed.

......9......8......7......6......5
`AutoStop = yes'. Analysis finished at 1 us.

Number of accepted tran steps =             110

Notice from spectre during transient analysis `trans-000_trans', during task `MDLControl'.
    Trapezoidal ringing is detected during tran analysis.
        Please use method=trap for better results and performance.


Maximum value achieved for any signal of each quantity: 
V: V(I0.NM0:int_d) = 307.7 mV
I: I(V1:p) = 777.7 uA
If your circuit contains signals of the same quantity that are vastly different in size (such as high voltage circuitry combined with low voltage control circuitry), you should consider specifying global option `bin_relref=yes'.

~~~~~~~~~~~~~~~~~~~~~~~~~~~~~~~~~
Post-Transient Simulation Summary
~~~~~~~~~~~~~~~~~~~~~~~~~~~~~~~~~
   -   To further speed up simulation, consider
          add ++aps on command line
~~~~~~~~~~~~~~~~~~~~~~~~~~~~~~~~~


During simulation, the CPU load for active processors is :
         0 (25.0 %)      1 (29.8 %)      2 (5.3 %)       3 (5.3 %)
        Total: 65.4%
Initial condition solution time: CPU = 0 s, elapsed = 291.109 us.
Intrinsic tran analysis time:    CPU = 15.997 ms, elapsed = 49.35 ms.
Total time required for tran analysis `trans-000_trans': CPU = 19.997 ms, elapsed = 52.2628 ms.
Time accumulated: CPU = 578.911 ms, elapsed = 1.21207 s.
Peak resident memory used = 89.8 Mbytes.


Notice from spectre during task `MDLControl'.
    36 notices suppressed.


**************************************************
DC Analysis `dcs-000_dcs': V1:dc = (0 V -> 300 mV)
**************************************************

Warning from spectre during DC analysis `dcs-000_dcs', during task `MDLControl'.
    WARNING (MDL-1565): validate object failure -- parameter or terminal 'I23' not found in specified scope.
    WARNING (MDL-1101): line `46': MDL expression for identifier 'max_dc_pwr' can not be evaluated due to previous errors.


Opening the PSF file ./input.raw/dcs-000_dcs.dc ...
Important parameter values:
    reltol = 1e-03
    abstol(V) = 1 uV
    abstol(I) = 1 pA
    temp = 27 C
    tnom = 27 C
    tempeffects = all
    gmindc = 1 pS
    dcs-000_dcs: dc = 12 mV          (4 %), step = 6 mV            (2 %)
    dcs-000_dcs: dc = 18 mV          (6 %), step = 6 mV            (2 %)
    dcs-000_dcs: dc = 24 mV          (8 %), step = 6 mV            (2 %)
    dcs-000_dcs: dc = 30 mV         (10 %), step = 6 mV            (2 %)
    dcs-000_dcs: dc = 36 mV         (12 %), step = 6 mV            (2 %)
    dcs-000_dcs: dc = 42 mV         (14 %), step = 6 mV            (2 %)
    dcs-000_dcs: dc = 48 mV         (16 %), step = 6 mV            (2 %)
    dcs-000_dcs: dc = 54 mV         (18 %), step = 6 mV            (2 %)
    dcs-000_dcs: dc = 60 mV         (20 %), step = 6 mV            (2 %)
    dcs-000_dcs: dc = 66 mV         (22 %), step = 6 mV            (2 %)
    dcs-000_dcs: dc = 72 mV         (24 %), step = 6 mV            (2 %)
    dcs-000_dcs: dc = 78 mV         (26 %), step = 6 mV            (2 %)
    dcs-000_dcs: dc = 84 mV         (28 %), step = 6 mV            (2 %)
    dcs-000_dcs: dc = 90 mV         (30 %), step = 6 mV            (2 %)
    dcs-000_dcs: dc = 96 mV         (32 %), step = 6 mV            (2 %)
    dcs-000_dcs: dc = 102 mV        (34 %), step = 6 mV            (2 %)
    dcs-000_dcs: dc = 108 mV        (36 %), step = 6 mV            (2 %)
    dcs-000_dcs: dc = 114 mV        (38 %), step = 6 mV            (2 %)
    dcs-000_dcs: dc = 120 mV        (40 %), step = 6 mV            (2 %)
    dcs-000_dcs: dc = 126 mV        (42 %), step = 6 mV            (2 %)
    dcs-000_dcs: dc = 132 mV        (44 %), step = 6 mV            (2 %)
    dcs-000_dcs: dc = 138 mV        (46 %), step = 6 mV            (2 %)
    dcs-000_dcs: dc = 144 mV        (48 %), step = 6 mV            (2 %)
    dcs-000_dcs: dc = 150 mV        (50 %), step = 6 mV            (2 %)
    dcs-000_dcs: dc = 156 mV        (52 %), step = 6 mV            (2 %)
    dcs-000_dcs: dc = 162 mV        (54 %), step = 6 mV            (2 %)
    dcs-000_dcs: dc = 168 mV        (56 %), step = 6 mV            (2 %)
    dcs-000_dcs: dc = 174 mV        (58 %), step = 6 mV            (2 %)
    dcs-000_dcs: dc = 180 mV        (60 %), step = 6 mV            (2 %)
    dcs-000_dcs: dc = 186 mV        (62 %), step = 6 mV            (2 %)
    dcs-000_dcs: dc = 192 mV        (64 %), step = 6 mV            (2 %)
    dcs-000_dcs: dc = 198 mV        (66 %), step = 6 mV            (2 %)
    dcs-000_dcs: dc = 204 mV        (68 %), step = 6 mV            (2 %)
    dcs-000_dcs: dc = 210 mV        (70 %), step = 6 mV            (2 %)
    dcs-000_dcs: dc = 216 mV        (72 %), step = 6 mV            (2 %)
    dcs-000_dcs: dc = 222 mV        (74 %), step = 6 mV            (2 %)
    dcs-000_dcs: dc = 228 mV        (76 %), step = 6 mV            (2 %)
    dcs-000_dcs: dc = 234 mV        (78 %), step = 6 mV            (2 %)
    dcs-000_dcs: dc = 240 mV        (80 %), step = 6 mV            (2 %)
    dcs-000_dcs: dc = 246 mV        (82 %), step = 6 mV            (2 %)
    dcs-000_dcs: dc = 252 mV        (84 %), step = 6 mV            (2 %)
    dcs-000_dcs: dc = 258 mV        (86 %), step = 6 mV            (2 %)
    dcs-000_dcs: dc = 264 mV        (88 %), step = 6 mV            (2 %)
    dcs-000_dcs: dc = 270 mV        (90 %), step = 6 mV            (2 %)
    dcs-000_dcs: dc = 276 mV        (92 %), step = 6 mV            (2 %)
    dcs-000_dcs: dc = 282 mV        (94 %), step = 6 mV            (2 %)
    dcs-000_dcs: dc = 288 mV        (96 %), step = 6 mV            (2 %)
    dcs-000_dcs: dc = 294 mV        (98 %), step = 6 mV            (2 %)
    dcs-000_dcs: dc = 300 mV       (100 %), step = 6 mV            (2 %)

Maximum value achieved for any signal of each quantity: 
V: V(net5) = 300 mV
I: I(V0:p) = 141.2 pA
DC simulation time: CPU = 13.998 ms, elapsed = 43.5052 ms.

Notice from spectre at dc = 300 mV during DC analysis `dcs-000_dcs', during task `MDLControl'.
    The value of parameter 'dc' has been reset to the original value 0.

Total time required for dc analysis `dcs-000_dcs': CPU = 13.998 ms, elapsed = 43.546 ms.
Time accumulated: CPU = 592.909 ms, elapsed = 1.25619 s.
Peak resident memory used = 89.8 Mbytes.


Warning from spectre.
    WARNING (SPECTRE-17101): The value 'psf' specified for the 'checklimitdest' option will no longer be supported in future releases. Use 'spectre -h' to see other recommended values for the 'checklimitdest' option.
    WARNING (SPECTRE-17101): The value 'psf' specified for the 'checklimitdest' option will no longer be supported in future releases. Use 'spectre -h' to see other recommended values for the 'checklimitdest' option.


**********************************************************
Transient Analysis `trans-000_trans': time = (0 s -> 2 us)
**********************************************************
DC simulation time: CPU = 0 s, elapsed = 236.988 us.

Opening the PSFXL file ./input.raw/trans-000_trans.tran.tran ...
Important parameter values:
    start = 0 s
    outputstart = 0 s
    stop = 2 us
    step = 2 ns
    maxstep = 40 ns
    ic = all
    useprevic = no
    skipdc = no
    reltol = 1e-03
    abstol(V) = 1 uV
    abstol(I) = 1 pA
    temp = 27 C
    tnom = 27 C
    tempeffects = all
    errpreset = moderate
    method = traponly
    lteratio = 3.5
    relref = sigglobal
    cmin = 0 F
    gmin = 1 pS


Output and IC/nodeset summary:
                 save   11      (current)
                 save   7       (voltage)
                 others 4       


Notice from spectre at time = 4.78413 ps during transient analysis `trans-000_trans', during task `MDLControl'.
    Found trapezoidal ringing on node I0.NM0:int_s.
Notice from spectre at time = 8.48855 ps during transient analysis `trans-000_trans', during task `MDLControl'.
    Found trapezoidal ringing on node I0.NM0:int_s.
Notice from spectre at time = 15.8921 ps during transient analysis `trans-000_trans', during task `MDLControl'.
    Found trapezoidal ringing on node I0.NM0:int_s.
Notice from spectre at time = 30.6665 ps during transient analysis `trans-000_trans', during task `MDLControl'.
    Found trapezoidal ringing on node I0.NM0:int_s.
Notice from spectre at time = 60.1571 ps during transient analysis `trans-000_trans', during task `MDLControl'.
    Found trapezoidal ringing on node I0.NM0:int_s.
        Further occurrences of this notice will be suppressed.

......9......8......7......6......5
`AutoStop = yes'. Analysis finished at 1 us.

Number of accepted tran steps =             109

Notice from spectre during transient analysis `trans-000_trans', during task `MDLControl'.
    Trapezoidal ringing is detected during tran analysis.
        Please use method=trap for better results and performance.


Maximum value achieved for any signal of each quantity: 
V: V(I0.NM0:int_d) = 307.7 mV
I: I(V1:p) = 780.3 uA
If your circuit contains signals of the same quantity that are vastly different in size (such as high voltage circuitry combined with low voltage control circuitry), you should consider specifying global option `bin_relref=yes'.

~~~~~~~~~~~~~~~~~~~~~~~~~~~~~~~~~
Post-Transient Simulation Summary
~~~~~~~~~~~~~~~~~~~~~~~~~~~~~~~~~
   -   To further speed up simulation, consider
          add ++aps on command line
~~~~~~~~~~~~~~~~~~~~~~~~~~~~~~~~~


During simulation, the CPU load for active processors is :
         0 (26.2 %)      1 (28.2 %)      2 (4.8 %)       3 (4.8 %)
        Total: 64.1%
Initial condition solution time: CPU = 0 s, elapsed = 277.996 us.
Intrinsic tran analysis time:    CPU = 17.997 ms, elapsed = 58.9621 ms.
Total time required for tran analysis `trans-000_trans': CPU = 19.996 ms, elapsed = 61.5828 ms.
Time accumulated: CPU = 615.905 ms, elapsed = 1.32149 s.
Peak resident memory used = 89.9 Mbytes.


Notice from spectre during task `MDLControl'.
    37 notices suppressed.


**************************************************
DC Analysis `dcs-000_dcs': V1:dc = (0 V -> 300 mV)
**************************************************

Warning from spectre during DC analysis `dcs-000_dcs', during task `MDLControl'.
    WARNING (MDL-1565): validate object failure -- parameter or terminal 'I23' not found in specified scope.
    WARNING (MDL-1101): line `46': MDL expression for identifier 'max_dc_pwr' can not be evaluated due to previous errors.


Opening the PSF file ./input.raw/dcs-000_dcs.dc ...
Important parameter values:
    reltol = 1e-03
    abstol(V) = 1 uV
    abstol(I) = 1 pA
    temp = 27 C
    tnom = 27 C
    tempeffects = all
    gmindc = 1 pS
    dcs-000_dcs: dc = 12 mV          (4 %), step = 6 mV            (2 %)
    dcs-000_dcs: dc = 18 mV          (6 %), step = 6 mV            (2 %)
    dcs-000_dcs: dc = 24 mV          (8 %), step = 6 mV            (2 %)
    dcs-000_dcs: dc = 30 mV         (10 %), step = 6 mV            (2 %)
    dcs-000_dcs: dc = 36 mV         (12 %), step = 6 mV            (2 %)
    dcs-000_dcs: dc = 42 mV         (14 %), step = 6 mV            (2 %)
    dcs-000_dcs: dc = 48 mV         (16 %), step = 6 mV            (2 %)
    dcs-000_dcs: dc = 54 mV         (18 %), step = 6 mV            (2 %)
    dcs-000_dcs: dc = 60 mV         (20 %), step = 6 mV            (2 %)
    dcs-000_dcs: dc = 66 mV         (22 %), step = 6 mV            (2 %)
    dcs-000_dcs: dc = 72 mV         (24 %), step = 6 mV            (2 %)
    dcs-000_dcs: dc = 78 mV         (26 %), step = 6 mV            (2 %)
    dcs-000_dcs: dc = 84 mV         (28 %), step = 6 mV            (2 %)
    dcs-000_dcs: dc = 90 mV         (30 %), step = 6 mV            (2 %)
    dcs-000_dcs: dc = 96 mV         (32 %), step = 6 mV            (2 %)
    dcs-000_dcs: dc = 102 mV        (34 %), step = 6 mV            (2 %)
    dcs-000_dcs: dc = 108 mV        (36 %), step = 6 mV            (2 %)
    dcs-000_dcs: dc = 114 mV        (38 %), step = 6 mV            (2 %)
    dcs-000_dcs: dc = 120 mV        (40 %), step = 6 mV            (2 %)
    dcs-000_dcs: dc = 126 mV        (42 %), step = 6 mV            (2 %)
    dcs-000_dcs: dc = 132 mV        (44 %), step = 6 mV            (2 %)
    dcs-000_dcs: dc = 138 mV        (46 %), step = 6 mV            (2 %)
    dcs-000_dcs: dc = 144 mV        (48 %), step = 6 mV            (2 %)
    dcs-000_dcs: dc = 150 mV        (50 %), step = 6 mV            (2 %)
    dcs-000_dcs: dc = 156 mV        (52 %), step = 6 mV            (2 %)
    dcs-000_dcs: dc = 162 mV        (54 %), step = 6 mV            (2 %)
    dcs-000_dcs: dc = 168 mV        (56 %), step = 6 mV            (2 %)
    dcs-000_dcs: dc = 174 mV        (58 %), step = 6 mV            (2 %)
    dcs-000_dcs: dc = 180 mV        (60 %), step = 6 mV            (2 %)
    dcs-000_dcs: dc = 186 mV        (62 %), step = 6 mV            (2 %)
    dcs-000_dcs: dc = 192 mV        (64 %), step = 6 mV            (2 %)
    dcs-000_dcs: dc = 198 mV        (66 %), step = 6 mV            (2 %)
    dcs-000_dcs: dc = 204 mV        (68 %), step = 6 mV            (2 %)
    dcs-000_dcs: dc = 210 mV        (70 %), step = 6 mV            (2 %)
    dcs-000_dcs: dc = 216 mV        (72 %), step = 6 mV            (2 %)
    dcs-000_dcs: dc = 222 mV        (74 %), step = 6 mV            (2 %)
    dcs-000_dcs: dc = 228 mV        (76 %), step = 6 mV            (2 %)
    dcs-000_dcs: dc = 234 mV        (78 %), step = 6 mV            (2 %)
    dcs-000_dcs: dc = 240 mV        (80 %), step = 6 mV            (2 %)
    dcs-000_dcs: dc = 246 mV        (82 %), step = 6 mV            (2 %)
    dcs-000_dcs: dc = 252 mV        (84 %), step = 6 mV            (2 %)
    dcs-000_dcs: dc = 258 mV        (86 %), step = 6 mV            (2 %)
    dcs-000_dcs: dc = 264 mV        (88 %), step = 6 mV            (2 %)
    dcs-000_dcs: dc = 270 mV        (90 %), step = 6 mV            (2 %)
    dcs-000_dcs: dc = 276 mV        (92 %), step = 6 mV            (2 %)
    dcs-000_dcs: dc = 282 mV        (94 %), step = 6 mV            (2 %)
    dcs-000_dcs: dc = 288 mV        (96 %), step = 6 mV            (2 %)
    dcs-000_dcs: dc = 294 mV        (98 %), step = 6 mV            (2 %)
    dcs-000_dcs: dc = 300 mV       (100 %), step = 6 mV            (2 %)

Maximum value achieved for any signal of each quantity: 
V: V(net5) = 300 mV
I: I(V0:p) = 124.7 pA
DC simulation time: CPU = 12.998 ms, elapsed = 52.7871 ms.

Notice from spectre at dc = 300 mV during DC analysis `dcs-000_dcs', during task `MDLControl'.
    The value of parameter 'dc' has been reset to the original value 0.

Total time required for dc analysis `dcs-000_dcs': CPU = 12.998 ms, elapsed = 52.8259 ms.
Time accumulated: CPU = 630.903 ms, elapsed = 1.37493 s.
Peak resident memory used = 89.9 Mbytes.


Warning from spectre.
    WARNING (SPECTRE-17101): The value 'psf' specified for the 'checklimitdest' option will no longer be supported in future releases. Use 'spectre -h' to see other recommended values for the 'checklimitdest' option.
    WARNING (SPECTRE-17101): The value 'psf' specified for the 'checklimitdest' option will no longer be supported in future releases. Use 'spectre -h' to see other recommended values for the 'checklimitdest' option.


**********************************************************
Transient Analysis `trans-000_trans': time = (0 s -> 2 us)
**********************************************************
DC simulation time: CPU = 1 ms, elapsed = 257.969 us.

Opening the PSFXL file ./input.raw/trans-000_trans.tran.tran ...
Important parameter values:
    start = 0 s
    outputstart = 0 s
    stop = 2 us
    step = 2 ns
    maxstep = 40 ns
    ic = all
    useprevic = no
    skipdc = no
    reltol = 1e-03
    abstol(V) = 1 uV
    abstol(I) = 1 pA
    temp = 27 C
    tnom = 27 C
    tempeffects = all
    errpreset = moderate
    method = traponly
    lteratio = 3.5
    relref = sigglobal
    cmin = 0 F
    gmin = 1 pS


Output and IC/nodeset summary:
                 save   11      (current)
                 save   7       (voltage)
                 others 4       


Notice from spectre at time = 4.73507 ps during transient analysis `trans-000_trans', during task `MDLControl'.
    Found trapezoidal ringing on node I0.NM0:int_s.
Notice from spectre at time = 8.36538 ps during transient analysis `trans-000_trans', during task `MDLControl'.
    Found trapezoidal ringing on node I0.NM0:int_s.
Notice from spectre at time = 15.598 ps during transient analysis `trans-000_trans', during task `MDLControl'.
    Found trapezoidal ringing on node I0.NM0:int_s.
Notice from spectre at time = 29.9821 ps during transient analysis `trans-000_trans', during task `MDLControl'.
    Found trapezoidal ringing on node I0.NM0:int_s.
Notice from spectre at time = 58.5962 ps during transient analysis `trans-000_trans', during task `MDLControl'.
    Found trapezoidal ringing on node I0.NM0:int_s.
        Further occurrences of this notice will be suppressed.

......9......8......7......6......5
`AutoStop = yes'. Analysis finished at 1 us.

Number of accepted tran steps =             100

Notice from spectre during transient analysis `trans-000_trans', during task `MDLControl'.
    Trapezoidal ringing is detected during tran analysis.
        Please use method=trap for better results and performance.


Maximum value achieved for any signal of each quantity: 
V: V(I0.NM0:int_d) = 307.7 mV
I: I(V1:p) = 773.7 uA
If your circuit contains signals of the same quantity that are vastly different in size (such as high voltage circuitry combined with low voltage control circuitry), you should consider specifying global option `bin_relref=yes'.

~~~~~~~~~~~~~~~~~~~~~~~~~~~~~~~~~
Post-Transient Simulation Summary
~~~~~~~~~~~~~~~~~~~~~~~~~~~~~~~~~
   -   To further speed up simulation, consider
          add ++aps on command line
~~~~~~~~~~~~~~~~~~~~~~~~~~~~~~~~~


During simulation, the CPU load for active processors is :
         0 (27.6 %)      1 (26.3 %)      2 (4.4 %)       3 (4.4 %)
        Total: 62.7%
Initial condition solution time: CPU = 1 ms, elapsed = 299.931 us.
Intrinsic tran analysis time:    CPU = 18.997 ms, elapsed = 66.8051 ms.
Total time required for tran analysis `trans-000_trans': CPU = 21.997 ms, elapsed = 69.6869 ms.
Time accumulated: CPU = 655.899 ms, elapsed = 1.44837 s.
Peak resident memory used = 89.9 Mbytes.


Notice from spectre during task `MDLControl'.
    46 notices suppressed.


**************************************************
DC Analysis `dcs-000_dcs': V1:dc = (0 V -> 300 mV)
**************************************************

Warning from spectre during DC analysis `dcs-000_dcs', during task `MDLControl'.
    WARNING (MDL-1565): validate object failure -- parameter or terminal 'I23' not found in specified scope.
    WARNING (MDL-1101): line `46': MDL expression for identifier 'max_dc_pwr' can not be evaluated due to previous errors.


Opening the PSF file ./input.raw/dcs-000_dcs.dc ...
Important parameter values:
    reltol = 1e-03
    abstol(V) = 1 uV
    abstol(I) = 1 pA
    temp = 27 C
    tnom = 27 C
    tempeffects = all
    gmindc = 1 pS
    dcs-000_dcs: dc = 12 mV          (4 %), step = 6 mV            (2 %)
    dcs-000_dcs: dc = 18 mV          (6 %), step = 6 mV            (2 %)
    dcs-000_dcs: dc = 24 mV          (8 %), step = 6 mV            (2 %)
    dcs-000_dcs: dc = 30 mV         (10 %), step = 6 mV            (2 %)
    dcs-000_dcs: dc = 36 mV         (12 %), step = 6 mV            (2 %)
    dcs-000_dcs: dc = 42 mV         (14 %), step = 6 mV            (2 %)
    dcs-000_dcs: dc = 48 mV         (16 %), step = 6 mV            (2 %)
    dcs-000_dcs: dc = 54 mV         (18 %), step = 6 mV            (2 %)
    dcs-000_dcs: dc = 60 mV         (20 %), step = 6 mV            (2 %)
    dcs-000_dcs: dc = 66 mV         (22 %), step = 6 mV            (2 %)
    dcs-000_dcs: dc = 72 mV         (24 %), step = 6 mV            (2 %)
    dcs-000_dcs: dc = 78 mV         (26 %), step = 6 mV            (2 %)
    dcs-000_dcs: dc = 84 mV         (28 %), step = 6 mV            (2 %)
    dcs-000_dcs: dc = 90 mV         (30 %), step = 6 mV            (2 %)
    dcs-000_dcs: dc = 96 mV         (32 %), step = 6 mV            (2 %)
    dcs-000_dcs: dc = 102 mV        (34 %), step = 6 mV            (2 %)
    dcs-000_dcs: dc = 108 mV        (36 %), step = 6 mV            (2 %)
    dcs-000_dcs: dc = 114 mV        (38 %), step = 6 mV            (2 %)
    dcs-000_dcs: dc = 120 mV        (40 %), step = 6 mV            (2 %)
    dcs-000_dcs: dc = 126 mV        (42 %), step = 6 mV            (2 %)
    dcs-000_dcs: dc = 132 mV        (44 %), step = 6 mV            (2 %)
    dcs-000_dcs: dc = 138 mV        (46 %), step = 6 mV            (2 %)
    dcs-000_dcs: dc = 144 mV        (48 %), step = 6 mV            (2 %)
    dcs-000_dcs: dc = 150 mV        (50 %), step = 6 mV            (2 %)
    dcs-000_dcs: dc = 156 mV        (52 %), step = 6 mV            (2 %)
    dcs-000_dcs: dc = 162 mV        (54 %), step = 6 mV            (2 %)
    dcs-000_dcs: dc = 168 mV        (56 %), step = 6 mV            (2 %)
    dcs-000_dcs: dc = 174 mV        (58 %), step = 6 mV            (2 %)
    dcs-000_dcs: dc = 180 mV        (60 %), step = 6 mV            (2 %)
    dcs-000_dcs: dc = 186 mV        (62 %), step = 6 mV            (2 %)
    dcs-000_dcs: dc = 192 mV        (64 %), step = 6 mV            (2 %)
    dcs-000_dcs: dc = 198 mV        (66 %), step = 6 mV            (2 %)
    dcs-000_dcs: dc = 204 mV        (68 %), step = 6 mV            (2 %)
    dcs-000_dcs: dc = 210 mV        (70 %), step = 6 mV            (2 %)
    dcs-000_dcs: dc = 216 mV        (72 %), step = 6 mV            (2 %)
    dcs-000_dcs: dc = 222 mV        (74 %), step = 6 mV            (2 %)
    dcs-000_dcs: dc = 228 mV        (76 %), step = 6 mV            (2 %)
    dcs-000_dcs: dc = 234 mV        (78 %), step = 6 mV            (2 %)
    dcs-000_dcs: dc = 240 mV        (80 %), step = 6 mV            (2 %)
    dcs-000_dcs: dc = 246 mV        (82 %), step = 6 mV            (2 %)
    dcs-000_dcs: dc = 252 mV        (84 %), step = 6 mV            (2 %)
    dcs-000_dcs: dc = 258 mV        (86 %), step = 6 mV            (2 %)
    dcs-000_dcs: dc = 264 mV        (88 %), step = 6 mV            (2 %)
    dcs-000_dcs: dc = 270 mV        (90 %), step = 6 mV            (2 %)
    dcs-000_dcs: dc = 276 mV        (92 %), step = 6 mV            (2 %)
    dcs-000_dcs: dc = 282 mV        (94 %), step = 6 mV            (2 %)
    dcs-000_dcs: dc = 288 mV        (96 %), step = 6 mV            (2 %)
    dcs-000_dcs: dc = 294 mV        (98 %), step = 6 mV            (2 %)
    dcs-000_dcs: dc = 300 mV       (100 %), step = 6 mV            (2 %)

Maximum value achieved for any signal of each quantity: 
V: V(net5) = 300 mV
I: I(V0:p) = 141.2 pA
DC simulation time: CPU = 15.998 ms, elapsed = 44.4999 ms.

Notice from spectre at dc = 300 mV during DC analysis `dcs-000_dcs', during task `MDLControl'.
    The value of parameter 'dc' has been reset to the original value 0.

Total time required for dc analysis `dcs-000_dcs': CPU = 15.998 ms, elapsed = 44.5399 ms.
Time accumulated: CPU = 671.897 ms, elapsed = 1.49347 s.
Peak resident memory used = 89.9 Mbytes.


Warning from spectre.
    WARNING (SPECTRE-17101): The value 'psf' specified for the 'checklimitdest' option will no longer be supported in future releases. Use 'spectre -h' to see other recommended values for the 'checklimitdest' option.
    WARNING (SPECTRE-17101): The value 'psf' specified for the 'checklimitdest' option will no longer be supported in future releases. Use 'spectre -h' to see other recommended values for the 'checklimitdest' option.


**********************************************************
Transient Analysis `trans-000_trans': time = (0 s -> 2 us)
**********************************************************
DC simulation time: CPU = 0 s, elapsed = 239.849 us.

Opening the PSFXL file ./input.raw/trans-000_trans.tran.tran ...
Important parameter values:
    start = 0 s
    outputstart = 0 s
    stop = 2 us
    step = 2 ns
    maxstep = 40 ns
    ic = all
    useprevic = no
    skipdc = no
    reltol = 1e-03
    abstol(V) = 1 uV
    abstol(I) = 1 pA
    temp = 27 C
    tnom = 27 C
    tempeffects = all
    errpreset = moderate
    method = traponly
    lteratio = 3.5
    relref = sigglobal
    cmin = 0 F
    gmin = 1 pS


Output and IC/nodeset summary:
                 save   11      (current)
                 save   7       (voltage)
                 others 4       


Notice from spectre at time = 4.32184 ps during transient analysis `trans-000_trans', during task `MDLControl'.
    Found trapezoidal ringing on node I0.NM0:int_s.
Notice from spectre at time = 7.34327 ps during transient analysis `trans-000_trans', during task `MDLControl'.
    Found trapezoidal ringing on node I0.NM0:int_s.
Notice from spectre at time = 13.193 ps during transient analysis `trans-000_trans', during task `MDLControl'.
    Found trapezoidal ringing on node I0.NM0:int_s.
Notice from spectre at time = 24.471 ps during transient analysis `trans-000_trans', during task `MDLControl'.
    Found trapezoidal ringing on node I0.NM0:int_s.
Notice from spectre at time = 46.2216 ps during transient analysis `trans-000_trans', during task `MDLControl'.
    Found trapezoidal ringing on node I0.NM0:int_s.
        Further occurrences of this notice will be suppressed.

......9......8......7......6......5
`AutoStop = yes'. Analysis finished at 1 us.

Number of accepted tran steps =             96

Notice from spectre during transient analysis `trans-000_trans', during task `MDLControl'.
    Trapezoidal ringing is detected during tran analysis.
        Please use method=trap for better results and performance.


Maximum value achieved for any signal of each quantity: 
V: V(I0.NM0:int_d) = 308.1 mV
I: I(V1:p) = 959.2 uA
If your circuit contains signals of the same quantity that are vastly different in size (such as high voltage circuitry combined with low voltage control circuitry), you should consider specifying global option `bin_relref=yes'.

~~~~~~~~~~~~~~~~~~~~~~~~~~~~~~~~~
Post-Transient Simulation Summary
~~~~~~~~~~~~~~~~~~~~~~~~~~~~~~~~~
   -   To further speed up simulation, consider
          add ++aps on command line
~~~~~~~~~~~~~~~~~~~~~~~~~~~~~~~~~


During simulation, the CPU load for active processors is :
         0 (29.0 %)      1 (24.5 %)      2 (4.7 %)       3 (4.1 %)
        Total: 62.3%
Initial condition solution time: CPU = 0 s, elapsed = 280.857 us.
Intrinsic tran analysis time:    CPU = 15.997 ms, elapsed = 55.51 ms.
Total time required for tran analysis `trans-000_trans': CPU = 17.997 ms, elapsed = 58.0289 ms.
Time accumulated: CPU = 693.893 ms, elapsed = 1.55532 s.
Peak resident memory used = 90 Mbytes.


Notice from spectre during task `MDLControl'.
    36 notices suppressed.


**************************************************
DC Analysis `dcs-000_dcs': V1:dc = (0 V -> 300 mV)
**************************************************

Warning from spectre during DC analysis `dcs-000_dcs', during task `MDLControl'.
    WARNING (MDL-1565): validate object failure -- parameter or terminal 'I23' not found in specified scope.
    WARNING (MDL-1101): line `46': MDL expression for identifier 'max_dc_pwr' can not be evaluated due to previous errors.


Opening the PSF file ./input.raw/dcs-000_dcs.dc ...
Important parameter values:
    reltol = 1e-03
    abstol(V) = 1 uV
    abstol(I) = 1 pA
    temp = 27 C
    tnom = 27 C
    tempeffects = all
    gmindc = 1 pS
    dcs-000_dcs: dc = 12 mV          (4 %), step = 6 mV            (2 %)
    dcs-000_dcs: dc = 18 mV          (6 %), step = 6 mV            (2 %)
    dcs-000_dcs: dc = 24 mV          (8 %), step = 6 mV            (2 %)
    dcs-000_dcs: dc = 30 mV         (10 %), step = 6 mV            (2 %)
    dcs-000_dcs: dc = 36 mV         (12 %), step = 6 mV            (2 %)
    dcs-000_dcs: dc = 42 mV         (14 %), step = 6 mV            (2 %)
    dcs-000_dcs: dc = 48 mV         (16 %), step = 6 mV            (2 %)
    dcs-000_dcs: dc = 54 mV         (18 %), step = 6 mV            (2 %)
    dcs-000_dcs: dc = 60 mV         (20 %), step = 6 mV            (2 %)
    dcs-000_dcs: dc = 66 mV         (22 %), step = 6 mV            (2 %)
    dcs-000_dcs: dc = 72 mV         (24 %), step = 6 mV            (2 %)
    dcs-000_dcs: dc = 78 mV         (26 %), step = 6 mV            (2 %)
    dcs-000_dcs: dc = 84 mV         (28 %), step = 6 mV            (2 %)
    dcs-000_dcs: dc = 90 mV         (30 %), step = 6 mV            (2 %)
    dcs-000_dcs: dc = 96 mV         (32 %), step = 6 mV            (2 %)
    dcs-000_dcs: dc = 102 mV        (34 %), step = 6 mV            (2 %)
    dcs-000_dcs: dc = 108 mV        (36 %), step = 6 mV            (2 %)
    dcs-000_dcs: dc = 114 mV        (38 %), step = 6 mV            (2 %)
    dcs-000_dcs: dc = 120 mV        (40 %), step = 6 mV            (2 %)
    dcs-000_dcs: dc = 126 mV        (42 %), step = 6 mV            (2 %)
    dcs-000_dcs: dc = 132 mV        (44 %), step = 6 mV            (2 %)
    dcs-000_dcs: dc = 138 mV        (46 %), step = 6 mV            (2 %)
    dcs-000_dcs: dc = 144 mV        (48 %), step = 6 mV            (2 %)
    dcs-000_dcs: dc = 150 mV        (50 %), step = 6 mV            (2 %)
    dcs-000_dcs: dc = 156 mV        (52 %), step = 6 mV            (2 %)
    dcs-000_dcs: dc = 162 mV        (54 %), step = 6 mV            (2 %)
    dcs-000_dcs: dc = 168 mV        (56 %), step = 6 mV            (2 %)
    dcs-000_dcs: dc = 174 mV        (58 %), step = 6 mV            (2 %)
    dcs-000_dcs: dc = 180 mV        (60 %), step = 6 mV            (2 %)
    dcs-000_dcs: dc = 186 mV        (62 %), step = 6 mV            (2 %)
    dcs-000_dcs: dc = 192 mV        (64 %), step = 6 mV            (2 %)
    dcs-000_dcs: dc = 198 mV        (66 %), step = 6 mV            (2 %)
    dcs-000_dcs: dc = 204 mV        (68 %), step = 6 mV            (2 %)
    dcs-000_dcs: dc = 210 mV        (70 %), step = 6 mV            (2 %)
    dcs-000_dcs: dc = 216 mV        (72 %), step = 6 mV            (2 %)
    dcs-000_dcs: dc = 222 mV        (74 %), step = 6 mV            (2 %)
    dcs-000_dcs: dc = 228 mV        (76 %), step = 6 mV            (2 %)
    dcs-000_dcs: dc = 234 mV        (78 %), step = 6 mV            (2 %)
    dcs-000_dcs: dc = 240 mV        (80 %), step = 6 mV            (2 %)
    dcs-000_dcs: dc = 246 mV        (82 %), step = 6 mV            (2 %)
    dcs-000_dcs: dc = 252 mV        (84 %), step = 6 mV            (2 %)
    dcs-000_dcs: dc = 258 mV        (86 %), step = 6 mV            (2 %)
    dcs-000_dcs: dc = 264 mV        (88 %), step = 6 mV            (2 %)
    dcs-000_dcs: dc = 270 mV        (90 %), step = 6 mV            (2 %)
    dcs-000_dcs: dc = 276 mV        (92 %), step = 6 mV            (2 %)
    dcs-000_dcs: dc = 282 mV        (94 %), step = 6 mV            (2 %)
    dcs-000_dcs: dc = 288 mV        (96 %), step = 6 mV            (2 %)
    dcs-000_dcs: dc = 294 mV        (98 %), step = 6 mV            (2 %)
    dcs-000_dcs: dc = 300 mV       (100 %), step = 6 mV            (2 %)

Maximum value achieved for any signal of each quantity: 
V: V(net5) = 300 mV
I: I(V0:p) = 33.82 pA
DC simulation time: CPU = 13.999 ms, elapsed = 69.7391 ms.

Notice from spectre at dc = 300 mV during DC analysis `dcs-000_dcs', during task `MDLControl'.
    The value of parameter 'dc' has been reset to the original value 0.

Total time required for dc analysis `dcs-000_dcs': CPU = 13.999 ms, elapsed = 69.7799 ms.
Time accumulated: CPU = 707.892 ms, elapsed = 1.62567 s.
Peak resident memory used = 90 Mbytes.


Warning from spectre.
    WARNING (SPECTRE-17101): The value 'psf' specified for the 'checklimitdest' option will no longer be supported in future releases. Use 'spectre -h' to see other recommended values for the 'checklimitdest' option.


**********************************************************
Transient Analysis `trans-000_trans': time = (0 s -> 2 us)
**********************************************************
DC simulation time: CPU = 0 s, elapsed = 234.127 us.

Opening the PSFXL file ./input.raw/trans-000_trans.tran.tran ...
Important parameter values:
    start = 0 s
    outputstart = 0 s
    stop = 2 us
    step = 2 ns
    maxstep = 40 ns
    ic = all
    useprevic = no
    skipdc = no
    reltol = 1e-03
    abstol(V) = 1 uV
    abstol(I) = 1 pA
    temp = 27 C
    tnom = 27 C
    tempeffects = all
    errpreset = moderate
    method = traponly
    lteratio = 3.5
    relref = sigglobal
    cmin = 0 F
    gmin = 1 pS


Output and IC/nodeset summary:
                 save   11      (current)
                 save   7       (voltage)
                 others 4       


Notice from spectre at time = 4.32473 ps during transient analysis `trans-000_trans', during task `MDLControl'.
    Found trapezoidal ringing on node I0.NM0:int_s.
Notice from spectre at time = 7.34963 ps during transient analysis `trans-000_trans', during task `MDLControl'.
    Found trapezoidal ringing on node I0.NM0:int_s.
Notice from spectre at time = 13.2068 ps during transient analysis `trans-000_trans', during task `MDLControl'.
    Found trapezoidal ringing on node I0.NM0:int_s.
Notice from spectre at time = 24.5006 ps during transient analysis `trans-000_trans', during task `MDLControl'.
    Found trapezoidal ringing on node I0.NM0:int_s.
Notice from spectre at time = 46.2846 ps during transient analysis `trans-000_trans', during task `MDLControl'.
    Found trapezoidal ringing on node I0.NM0:int_s.
        Further occurrences of this notice will be suppressed.

......9......8......7......6......5
`AutoStop = yes'. Analysis finished at 1 us.

Number of accepted tran steps =             96

Notice from spectre during transient analysis `trans-000_trans', during task `MDLControl'.
    Trapezoidal ringing is detected during tran analysis.
        Please use method=trap for better results and performance.


Maximum value achieved for any signal of each quantity: 
V: V(I0.NM0:int_d) = 308.3 mV
I: I(V1:p) = 985.4 uA
If your circuit contains signals of the same quantity that are vastly different in size (such as high voltage circuitry combined with low voltage control circuitry), you should consider specifying global option `bin_relref=yes'.

~~~~~~~~~~~~~~~~~~~~~~~~~~~~~~~~~
Post-Transient Simulation Summary
~~~~~~~~~~~~~~~~~~~~~~~~~~~~~~~~~
   -   To further speed up simulation, consider
          add ++aps on command line
~~~~~~~~~~~~~~~~~~~~~~~~~~~~~~~~~


During simulation, the CPU load for active processors is :
         0 (29.6 %)      1 (23.3 %)      2 (4.9 %)       3 (3.7 %)
        Total: 61.5%
Initial condition solution time: CPU = 0 s, elapsed = 273.228 us.
Intrinsic tran analysis time:    CPU = 16.997 ms, elapsed = 68.3899 ms.
Total time required for tran analysis `trans-000_trans': CPU = 19.997 ms, elapsed = 71.044 ms.
Time accumulated: CPU = 730.888 ms, elapsed = 1.69952 s.
Peak resident memory used = 90 Mbytes.


Notice from spectre during task `MDLControl'.
    36 notices suppressed.


**************************************************
DC Analysis `dcs-000_dcs': V1:dc = (0 V -> 300 mV)
**************************************************

Warning from spectre during DC analysis `dcs-000_dcs', during task `MDLControl'.
    WARNING (MDL-1565): validate object failure -- parameter or terminal 'I23' not found in specified scope.
    WARNING (MDL-1101): line `46': MDL expression for identifier 'max_dc_pwr' can not be evaluated due to previous errors.


Opening the PSF file ./input.raw/dcs-000_dcs.dc ...
Important parameter values:
    reltol = 1e-03
    abstol(V) = 1 uV
    abstol(I) = 1 pA
    temp = 27 C
    tnom = 27 C
    tempeffects = all
    gmindc = 1 pS
    dcs-000_dcs: dc = 12 mV          (4 %), step = 6 mV            (2 %)
    dcs-000_dcs: dc = 18 mV          (6 %), step = 6 mV            (2 %)
    dcs-000_dcs: dc = 24 mV          (8 %), step = 6 mV            (2 %)
    dcs-000_dcs: dc = 30 mV         (10 %), step = 6 mV            (2 %)
    dcs-000_dcs: dc = 36 mV         (12 %), step = 6 mV            (2 %)
    dcs-000_dcs: dc = 42 mV         (14 %), step = 6 mV            (2 %)
    dcs-000_dcs: dc = 48 mV         (16 %), step = 6 mV            (2 %)
    dcs-000_dcs: dc = 54 mV         (18 %), step = 6 mV            (2 %)
    dcs-000_dcs: dc = 60 mV         (20 %), step = 6 mV            (2 %)
    dcs-000_dcs: dc = 66 mV         (22 %), step = 6 mV            (2 %)
    dcs-000_dcs: dc = 72 mV         (24 %), step = 6 mV            (2 %)
    dcs-000_dcs: dc = 78 mV         (26 %), step = 6 mV            (2 %)
    dcs-000_dcs: dc = 84 mV         (28 %), step = 6 mV            (2 %)
    dcs-000_dcs: dc = 90 mV         (30 %), step = 6 mV            (2 %)
    dcs-000_dcs: dc = 96 mV         (32 %), step = 6 mV            (2 %)
    dcs-000_dcs: dc = 102 mV        (34 %), step = 6 mV            (2 %)
    dcs-000_dcs: dc = 108 mV        (36 %), step = 6 mV            (2 %)
    dcs-000_dcs: dc = 114 mV        (38 %), step = 6 mV            (2 %)
    dcs-000_dcs: dc = 120 mV        (40 %), step = 6 mV            (2 %)
    dcs-000_dcs: dc = 126 mV        (42 %), step = 6 mV            (2 %)
    dcs-000_dcs: dc = 132 mV        (44 %), step = 6 mV            (2 %)
    dcs-000_dcs: dc = 138 mV        (46 %), step = 6 mV            (2 %)
    dcs-000_dcs: dc = 144 mV        (48 %), step = 6 mV            (2 %)
    dcs-000_dcs: dc = 150 mV        (50 %), step = 6 mV            (2 %)
    dcs-000_dcs: dc = 156 mV        (52 %), step = 6 mV            (2 %)
    dcs-000_dcs: dc = 162 mV        (54 %), step = 6 mV            (2 %)
    dcs-000_dcs: dc = 168 mV        (56 %), step = 6 mV            (2 %)
    dcs-000_dcs: dc = 174 mV        (58 %), step = 6 mV            (2 %)
    dcs-000_dcs: dc = 180 mV        (60 %), step = 6 mV            (2 %)
    dcs-000_dcs: dc = 186 mV        (62 %), step = 6 mV            (2 %)
    dcs-000_dcs: dc = 192 mV        (64 %), step = 6 mV            (2 %)
    dcs-000_dcs: dc = 198 mV        (66 %), step = 6 mV            (2 %)
    dcs-000_dcs: dc = 204 mV        (68 %), step = 6 mV            (2 %)
    dcs-000_dcs: dc = 210 mV        (70 %), step = 6 mV            (2 %)
    dcs-000_dcs: dc = 216 mV        (72 %), step = 6 mV            (2 %)
    dcs-000_dcs: dc = 222 mV        (74 %), step = 6 mV            (2 %)
    dcs-000_dcs: dc = 228 mV        (76 %), step = 6 mV            (2 %)
    dcs-000_dcs: dc = 234 mV        (78 %), step = 6 mV            (2 %)
    dcs-000_dcs: dc = 240 mV        (80 %), step = 6 mV            (2 %)
    dcs-000_dcs: dc = 246 mV        (82 %), step = 6 mV            (2 %)
    dcs-000_dcs: dc = 252 mV        (84 %), step = 6 mV            (2 %)
    dcs-000_dcs: dc = 258 mV        (86 %), step = 6 mV            (2 %)
    dcs-000_dcs: dc = 264 mV        (88 %), step = 6 mV            (2 %)
    dcs-000_dcs: dc = 270 mV        (90 %), step = 6 mV            (2 %)
    dcs-000_dcs: dc = 276 mV        (92 %), step = 6 mV            (2 %)
    dcs-000_dcs: dc = 282 mV        (94 %), step = 6 mV            (2 %)
    dcs-000_dcs: dc = 288 mV        (96 %), step = 6 mV            (2 %)
    dcs-000_dcs: dc = 294 mV        (98 %), step = 6 mV            (2 %)
    dcs-000_dcs: dc = 300 mV       (100 %), step = 6 mV            (2 %)

Maximum value achieved for any signal of each quantity: 
V: V(net5) = 300 mV
I: I(V0:p) = 34.8 pA
DC simulation time: CPU = 12.998 ms, elapsed = 44.477 ms.

Notice from spectre at dc = 300 mV during DC analysis `dcs-000_dcs', during task `MDLControl'.
    The value of parameter 'dc' has been reset to the original value 0.

Total time required for dc analysis `dcs-000_dcs': CPU = 12.998 ms, elapsed = 44.518 ms.
Time accumulated: CPU = 744.886 ms, elapsed = 1.74463 s.
Peak resident memory used = 90 Mbytes.


Warning from spectre.
    WARNING (SPECTRE-17101): The value 'psf' specified for the 'checklimitdest' option will no longer be supported in future releases. Use 'spectre -h' to see other recommended values for the 'checklimitdest' option.
    WARNING (SPECTRE-17101): The value 'psf' specified for the 'checklimitdest' option will no longer be supported in future releases. Use 'spectre -h' to see other recommended values for the 'checklimitdest' option.


**********************************************************
Transient Analysis `trans-000_trans': time = (0 s -> 2 us)
**********************************************************
DC simulation time: CPU = 0 s, elapsed = 244.856 us.

Opening the PSFXL file ./input.raw/trans-000_trans.tran.tran ...
Important parameter values:
    start = 0 s
    outputstart = 0 s
    stop = 2 us
    step = 2 ns
    maxstep = 40 ns
    ic = all
    useprevic = no
    skipdc = no
    reltol = 1e-03
    abstol(V) = 1 uV
    abstol(I) = 1 pA
    temp = 27 C
    tnom = 27 C
    tempeffects = all
    errpreset = moderate
    method = traponly
    lteratio = 3.5
    relref = sigglobal
    cmin = 0 F
    gmin = 1 pS


Output and IC/nodeset summary:
                 save   11      (current)
                 save   7       (voltage)
                 others 4       


Notice from spectre at time = 4.36387 ps during transient analysis `trans-000_trans', during task `MDLControl'.
    Found trapezoidal ringing on node I0.NM0:int_s.
Notice from spectre at time = 7.44524 ps during transient analysis `trans-000_trans', during task `MDLControl'.
    Found trapezoidal ringing on node I0.NM0:int_s.
Notice from spectre at time = 13.4291 ps during transient analysis `trans-000_trans', during task `MDLControl'.
    Found trapezoidal ringing on node I0.NM0:int_s.
Notice from spectre at time = 25.0033 ps during transient analysis `trans-000_trans', during task `MDLControl'.
    Found trapezoidal ringing on node I0.NM0:int_s.
Notice from spectre at time = 47.3982 ps during transient analysis `trans-000_trans', during task `MDLControl'.
    Found trapezoidal ringing on node I0.NM0:int_s.
        Further occurrences of this notice will be suppressed.

......9......8......7......6......5
`AutoStop = yes'. Analysis finished at 1 us.

Number of accepted tran steps =             96

Notice from spectre during transient analysis `trans-000_trans', during task `MDLControl'.
    Trapezoidal ringing is detected during tran analysis.
        Please use method=trap for better results and performance.


Maximum value achieved for any signal of each quantity: 
V: V(I0.NM0:int_d) = 308.1 mV
I: I(V1:p) = 961.5 uA
If your circuit contains signals of the same quantity that are vastly different in size (such as high voltage circuitry combined with low voltage control circuitry), you should consider specifying global option `bin_relref=yes'.

[...]
    dcs-000_dcs: dc = 120 mV        (40 %), step = 6 mV            (2 %)
    dcs-000_dcs: dc = 126 mV        (42 %), step = 6 mV            (2 %)
    dcs-000_dcs: dc = 132 mV        (44 %), step = 6 mV            (2 %)
    dcs-000_dcs: dc = 138 mV        (46 %), step = 6 mV            (2 %)
    dcs-000_dcs: dc = 144 mV        (48 %), step = 6 mV            (2 %)
    dcs-000_dcs: dc = 150 mV        (50 %), step = 6 mV            (2 %)
    dcs-000_dcs: dc = 156 mV        (52 %), step = 6 mV            (2 %)
    dcs-000_dcs: dc = 162 mV        (54 %), step = 6 mV            (2 %)
    dcs-000_dcs: dc = 168 mV        (56 %), step = 6 mV            (2 %)
    dcs-000_dcs: dc = 174 mV        (58 %), step = 6 mV            (2 %)
    dcs-000_dcs: dc = 180 mV        (60 %), step = 6 mV            (2 %)
    dcs-000_dcs: dc = 186 mV        (62 %), step = 6 mV            (2 %)
    dcs-000_dcs: dc = 192 mV        (64 %), step = 6 mV            (2 %)
    dcs-000_dcs: dc = 198 mV        (66 %), step = 6 mV            (2 %)
    dcs-000_dcs: dc = 204 mV        (68 %), step = 6 mV            (2 %)
    dcs-000_dcs: dc = 210 mV        (70 %), step = 6 mV            (2 %)
    dcs-000_dcs: dc = 216 mV        (72 %), step = 6 mV            (2 %)
    dcs-000_dcs: dc = 222 mV        (74 %), step = 6 mV            (2 %)
    dcs-000_dcs: dc = 228 mV        (76 %), step = 6 mV            (2 %)
    dcs-000_dcs: dc = 234 mV        (78 %), step = 6 mV            (2 %)
    dcs-000_dcs: dc = 240 mV        (80 %), step = 6 mV            (2 %)
    dcs-000_dcs: dc = 246 mV        (82 %), step = 6 mV            (2 %)
    dcs-000_dcs: dc = 252 mV        (84 %), step = 6 mV            (2 %)
    dcs-000_dcs: dc = 258 mV        (86 %), step = 6 mV            (2 %)
    dcs-000_dcs: dc = 264 mV        (88 %), step = 6 mV            (2 %)
    dcs-000_dcs: dc = 270 mV        (90 %), step = 6 mV            (2 %)
    dcs-000_dcs: dc = 276 mV        (92 %), step = 6 mV            (2 %)
    dcs-000_dcs: dc = 282 mV        (94 %), step = 6 mV            (2 %)
    dcs-000_dcs: dc = 288 mV        (96 %), step = 6 mV            (2 %)
    dcs-000_dcs: dc = 294 mV        (98 %), step = 6 mV            (2 %)
    dcs-000_dcs: dc = 300 mV       (100 %), step = 6 mV            (2 %)

Maximum value achieved for any signal of each quantity: 
V: V(net5) = 300 mV
I: I(V0:p) = 19.99 pA
DC simulation time: CPU = 9.998 ms, elapsed = 46.818 ms.

Notice from spectre at dc = 300 mV during DC analysis `dcs-000_dcs', during task `MDLControl'.
    The value of parameter 'dc' has been reset to the original value 0.

Total time required for dc analysis `dcs-000_dcs': CPU = 9.998 ms, elapsed = 46.86 ms.
Time accumulated: CPU = 2.27765 s, elapsed = 6.0471 s.
Peak resident memory used = 91.1 Mbytes.


Warning from spectre.
    WARNING (SPECTRE-17101): The value 'psf' specified for the 'checklimitdest' option will no longer be supported in future releases. Use 'spectre -h' to see other recommended values for the 'checklimitdest' option.
    WARNING (SPECTRE-17101): The value 'psf' specified for the 'checklimitdest' option will no longer be supported in future releases. Use 'spectre -h' to see other recommended values for the 'checklimitdest' option.
    WARNING (SPECTRE-17101): The value 'psf' specified for the 'checklimitdest' option will no longer be supported in future releases. Use 'spectre -h' to see other recommended values for the 'checklimitdest' option.
    WARNING (SPECTRE-17101): The value 'psf' specified for the 'checklimitdest' option will no longer be supported in future releases. Use 'spectre -h' to see other recommended values for the 'checklimitdest' option.


**********************************************************
Transient Analysis `trans-000_trans': time = (0 s -> 2 us)
**********************************************************
DC simulation time: CPU = 0 s, elapsed = 241.041 us.

Opening the PSFXL file ./input.raw/trans-000_trans.tran.tran ...
Important parameter values:
    start = 0 s
    outputstart = 0 s
    stop = 2 us
    step = 2 ns
    maxstep = 40 ns
    ic = all
    useprevic = no
    skipdc = no
    reltol = 1e-03
    abstol(V) = 1 uV
    abstol(I) = 1 pA
    temp = 27 C
    tnom = 27 C
    tempeffects = all
    errpreset = moderate
    method = traponly
    lteratio = 3.5
    relref = sigglobal
    cmin = 0 F
    gmin = 1 pS


Output and IC/nodeset summary:
                 save   11      (current)
                 save   7       (voltage)
                 others 4       


Notice from spectre at time = 3.48738 ps during transient analysis `trans-000_trans', during task `MDLControl'.
    Found trapezoidal ringing on node I0.NM0:int_s.
Notice from spectre at time = 5.39815 ps during transient analysis `trans-000_trans', during task `MDLControl'.
    Found trapezoidal ringing on node I0.NM0:int_s.
Notice from spectre at time = 8.85093 ps during transient analysis `trans-000_trans', during task `MDLControl'.
    Found trapezoidal ringing on node I0.NM0:int_s.
Notice from spectre at time = 15.0281 ps during transient analysis `trans-000_trans', during task `MDLControl'.
    Found trapezoidal ringing on node I0.NM0:int_s.
Notice from spectre at time = 26.0874 ps during transient analysis `trans-000_trans', during task `MDLControl'.
    Found trapezoidal ringing on node I0.NM0:int_s.
        Further occurrences of this notice will be suppressed.

......9......8......7......6......5
`AutoStop = yes'. Analysis finished at 1 us.

Number of accepted tran steps =             115

Notice from spectre during transient analysis `trans-000_trans', during task `MDLControl'.
    Trapezoidal ringing is detected during tran analysis.
        Please use method=trap for better results and performance.


Maximum value achieved for any signal of each quantity: 
V: V(I0.NM0:int_d) = 304.3 mV
I: I(V1:p) = 499.5 uA
If your circuit contains signals of the same quantity that are vastly different in size (such as high voltage circuitry combined with low voltage control circuitry), you should consider specifying global option `bin_relref=yes'.

~~~~~~~~~~~~~~~~~~~~~~~~~~~~~~~~~
Post-Transient Simulation Summary
~~~~~~~~~~~~~~~~~~~~~~~~~~~~~~~~~
   -   To further speed up simulation, consider
          add ++aps on command line
~~~~~~~~~~~~~~~~~~~~~~~~~~~~~~~~~


During simulation, the CPU load for active processors is :
         0 (40.4 %)      1 (14.4 %)      2 (4.5 %)       3 (2.8 %)
        Total: 62.2%
Initial condition solution time: CPU = 0 s, elapsed = 281.096 us.
Intrinsic tran analysis time:    CPU = 21.997 ms, elapsed = 72.753 ms.
Total time required for tran analysis `trans-000_trans': CPU = 23.997 ms, elapsed = 75.3272 ms.
Time accumulated: CPU = 2.30865 s, elapsed = 6.12792 s.
Peak resident memory used = 91.2 Mbytes.


Notice from spectre during task `MDLControl'.
    48 notices suppressed.


**************************************************
DC Analysis `dcs-000_dcs': V1:dc = (0 V -> 300 mV)
**************************************************

Warning from spectre during DC analysis `dcs-000_dcs', during task `MDLControl'.
    WARNING (MDL-1565): validate object failure -- parameter or terminal 'I23' not found in specified scope.
    WARNING (MDL-1101): line `46': MDL expression for identifier 'max_dc_pwr' can not be evaluated due to previous errors.


Opening the PSF file ./input.raw/dcs-000_dcs.dc ...
Important parameter values:
    reltol = 1e-03
    abstol(V) = 1 uV
    abstol(I) = 1 pA
    temp = 27 C
    tnom = 27 C
    tempeffects = all
    gmindc = 1 pS
    dcs-000_dcs: dc = 12 mV          (4 %), step = 6 mV            (2 %)
    dcs-000_dcs: dc = 18 mV          (6 %), step = 6 mV            (2 %)
    dcs-000_dcs: dc = 24 mV          (8 %), step = 6 mV            (2 %)
    dcs-000_dcs: dc = 30 mV         (10 %), step = 6 mV            (2 %)
    dcs-000_dcs: dc = 36 mV         (12 %), step = 6 mV            (2 %)
    dcs-000_dcs: dc = 42 mV         (14 %), step = 6 mV            (2 %)
    dcs-000_dcs: dc = 48 mV         (16 %), step = 6 mV            (2 %)
    dcs-000_dcs: dc = 54 mV         (18 %), step = 6 mV            (2 %)
    dcs-000_dcs: dc = 60 mV         (20 %), step = 6 mV            (2 %)
    dcs-000_dcs: dc = 66 mV         (22 %), step = 6 mV            (2 %)
    dcs-000_dcs: dc = 72 mV         (24 %), step = 6 mV            (2 %)
    dcs-000_dcs: dc = 78 mV         (26 %), step = 6 mV            (2 %)
    dcs-000_dcs: dc = 84 mV         (28 %), step = 6 mV            (2 %)
    dcs-000_dcs: dc = 90 mV         (30 %), step = 6 mV            (2 %)
    dcs-000_dcs: dc = 96 mV         (32 %), step = 6 mV            (2 %)
    dcs-000_dcs: dc = 102 mV        (34 %), step = 6 mV            (2 %)
    dcs-000_dcs: dc = 108 mV        (36 %), step = 6 mV            (2 %)
    dcs-000_dcs: dc = 114 mV        (38 %), step = 6 mV            (2 %)
    dcs-000_dcs: dc = 120 mV        (40 %), step = 6 mV            (2 %)
    dcs-000_dcs: dc = 126 mV        (42 %), step = 6 mV            (2 %)
    dcs-000_dcs: dc = 132 mV        (44 %), step = 6 mV            (2 %)
    dcs-000_dcs: dc = 138 mV        (46 %), step = 6 mV            (2 %)
    dcs-000_dcs: dc = 144 mV        (48 %), step = 6 mV            (2 %)
    dcs-000_dcs: dc = 150 mV        (50 %), step = 6 mV            (2 %)
    dcs-000_dcs: dc = 156 mV        (52 %), step = 6 mV            (2 %)
    dcs-000_dcs: dc = 162 mV        (54 %), step = 6 mV            (2 %)
    dcs-000_dcs: dc = 168 mV        (56 %), step = 6 mV            (2 %)
    dcs-000_dcs: dc = 174 mV        (58 %), step = 6 mV            (2 %)
    dcs-000_dcs: dc = 180 mV        (60 %), step = 6 mV            (2 %)
    dcs-000_dcs: dc = 186 mV        (62 %), step = 6 mV            (2 %)
    dcs-000_dcs: dc = 192 mV        (64 %), step = 6 mV            (2 %)
    dcs-000_dcs: dc = 198 mV        (66 %), step = 6 mV            (2 %)
    dcs-000_dcs: dc = 204 mV        (68 %), step = 6 mV            (2 %)
    dcs-000_dcs: dc = 210 mV        (70 %), step = 6 mV            (2 %)
    dcs-000_dcs: dc = 216 mV        (72 %), step = 6 mV            (2 %)
    dcs-000_dcs: dc = 222 mV        (74 %), step = 6 mV            (2 %)
    dcs-000_dcs: dc = 228 mV        (76 %), step = 6 mV            (2 %)
    dcs-000_dcs: dc = 234 mV        (78 %), step = 6 mV            (2 %)
    dcs-000_dcs: dc = 240 mV        (80 %), step = 6 mV            (2 %)
    dcs-000_dcs: dc = 246 mV        (82 %), step = 6 mV            (2 %)
    dcs-000_dcs: dc = 252 mV        (84 %), step = 6 mV            (2 %)
    dcs-000_dcs: dc = 258 mV        (86 %), step = 6 mV            (2 %)
    dcs-000_dcs: dc = 264 mV        (88 %), step = 6 mV            (2 %)
    dcs-000_dcs: dc = 270 mV        (90 %), step = 6 mV            (2 %)
    dcs-000_dcs: dc = 276 mV        (92 %), step = 6 mV            (2 %)
    dcs-000_dcs: dc = 282 mV        (94 %), step = 6 mV            (2 %)
    dcs-000_dcs: dc = 288 mV        (96 %), step = 6 mV            (2 %)
    dcs-000_dcs: dc = 294 mV        (98 %), step = 6 mV            (2 %)
    dcs-000_dcs: dc = 300 mV       (100 %), step = 6 mV            (2 %)

Maximum value achieved for any signal of each quantity: 
V: V(net5) = 300 mV
I: I(V0:p) = 19.97 pA
DC simulation time: CPU = 18.997 ms, elapsed = 60.6408 ms.

Notice from spectre at dc = 300 mV during DC analysis `dcs-000_dcs', during task `MDLControl'.
    The value of parameter 'dc' has been reset to the original value 0.

Total time required for dc analysis `dcs-000_dcs': CPU = 18.997 ms, elapsed = 60.714 ms.
Time accumulated: CPU = 2.32764 s, elapsed = 6.18949 s.
Peak resident memory used = 91.2 Mbytes.


**********************************************************
Transient Analysis `trans-000_trans': time = (0 s -> 2 us)
**********************************************************
DC simulation time: CPU = 0 s, elapsed = 231.028 us.

Opening the PSFXL file ./input.raw/trans-000_trans.tran.tran ...
Important parameter values:
    start = 0 s
    outputstart = 0 s
    stop = 2 us
    step = 2 ns
    maxstep = 40 ns
    ic = all
    useprevic = no
    skipdc = no
    reltol = 1e-03
    abstol(V) = 1 uV
    abstol(I) = 1 pA
    temp = 27 C
    tnom = 27 C
    tempeffects = all
    errpreset = moderate
    method = traponly
    lteratio = 3.5
    relref = sigglobal
    cmin = 0 F
    gmin = 1 pS


Output and IC/nodeset summary:
                 save   11      (current)
                 save   7       (voltage)
                 others 4       


Notice from spectre at time = 3.48738 ps during transient analysis `trans-000_trans', during task `MDLControl'.
    Found trapezoidal ringing on node I0.NM0:int_s.
Notice from spectre at time = 5.39815 ps during transient analysis `trans-000_trans', during task `MDLControl'.
    Found trapezoidal ringing on node I0.NM0:int_s.
Notice from spectre at time = 8.85093 ps during transient analysis `trans-000_trans', during task `MDLControl'.
    Found trapezoidal ringing on node I0.NM0:int_s.
Notice from spectre at time = 15.0281 ps during transient analysis `trans-000_trans', during task `MDLControl'.
    Found trapezoidal ringing on node I0.NM0:int_s.
Notice from spectre at time = 26.0874 ps during transient analysis `trans-000_trans', during task `MDLControl'.
    Found trapezoidal ringing on node I0.NM0:int_s.
        Further occurrences of this notice will be suppressed.

......9......8......7......6......5
`AutoStop = yes'. Analysis finished at 1 us.

Number of accepted tran steps =             115

Notice from spectre during transient analysis `trans-000_trans', during task `MDLControl'.
    Trapezoidal ringing is detected during tran analysis.
        Please use method=trap for better results and performance.


Maximum value achieved for any signal of each quantity: 
V: V(I0.NM0:int_d) = 304.3 mV
I: I(V1:p) = 499.5 uA
If your circuit contains signals of the same quantity that are vastly different in size (such as high voltage circuitry combined with low voltage control circuitry), you should consider specifying global option `bin_relref=yes'.

~~~~~~~~~~~~~~~~~~~~~~~~~~~~~~~~~
Post-Transient Simulation Summary
~~~~~~~~~~~~~~~~~~~~~~~~~~~~~~~~~
   -   To further speed up simulation, consider
          add ++aps on command line
~~~~~~~~~~~~~~~~~~~~~~~~~~~~~~~~~


During simulation, the CPU load for active processors is :
         0 (40.3 %)      1 (14.8 %)      2 (4.6 %)       3 (2.8 %)
        Total: 62.5%
Initial condition solution time: CPU = 0 s, elapsed = 269.89 us.
Intrinsic tran analysis time:    CPU = 18.998 ms, elapsed = 47.41 ms.
Total time required for tran analysis `trans-000_trans': CPU = 20.997 ms, elapsed = 49.9549 ms.
Time accumulated: CPU = 2.35064 s, elapsed = 6.24136 s.
Peak resident memory used = 91.2 Mbytes.


Notice from spectre during task `MDLControl'.
    48 notices suppressed.


**************************************************
DC Analysis `dcs-000_dcs': V1:dc = (0 V -> 300 mV)
**************************************************

Warning from spectre during DC analysis `dcs-000_dcs', during task `MDLControl'.
    WARNING (MDL-1565): validate object failure -- parameter or terminal 'I23' not found in specified scope.
    WARNING (MDL-1101): line `46': MDL expression for identifier 'max_dc_pwr' can not be evaluated due to previous errors.


Opening the PSF file ./input.raw/dcs-000_dcs.dc ...
Important parameter values:
    reltol = 1e-03
    abstol(V) = 1 uV
    abstol(I) = 1 pA
    temp = 27 C
    tnom = 27 C
    tempeffects = all
    gmindc = 1 pS
    dcs-000_dcs: dc = 12 mV          (4 %), step = 6 mV            (2 %)
    dcs-000_dcs: dc = 18 mV          (6 %), step = 6 mV            (2 %)
    dcs-000_dcs: dc = 24 mV          (8 %), step = 6 mV            (2 %)
    dcs-000_dcs: dc = 30 mV         (10 %), step = 6 mV            (2 %)
    dcs-000_dcs: dc = 36 mV         (12 %), step = 6 mV            (2 %)
    dcs-000_dcs: dc = 42 mV         (14 %), step = 6 mV            (2 %)
    dcs-000_dcs: dc = 48 mV         (16 %), step = 6 mV            (2 %)
    dcs-000_dcs: dc = 54 mV         (18 %), step = 6 mV            (2 %)
    dcs-000_dcs: dc = 60 mV         (20 %), step = 6 mV            (2 %)
    dcs-000_dcs: dc = 66 mV         (22 %), step = 6 mV            (2 %)
    dcs-000_dcs: dc = 72 mV         (24 %), step = 6 mV            (2 %)
    dcs-000_dcs: dc = 78 mV         (26 %), step = 6 mV            (2 %)
    dcs-000_dcs: dc = 84 mV         (28 %), step = 6 mV            (2 %)
    dcs-000_dcs: dc = 90 mV         (30 %), step = 6 mV            (2 %)
    dcs-000_dcs: dc = 96 mV         (32 %), step = 6 mV            (2 %)
    dcs-000_dcs: dc = 102 mV        (34 %), step = 6 mV            (2 %)
    dcs-000_dcs: dc = 108 mV        (36 %), step = 6 mV            (2 %)
    dcs-000_dcs: dc = 114 mV        (38 %), step = 6 mV            (2 %)
    dcs-000_dcs: dc = 120 mV        (40 %), step = 6 mV            (2 %)
    dcs-000_dcs: dc = 126 mV        (42 %), step = 6 mV            (2 %)
    dcs-000_dcs: dc = 132 mV        (44 %), step = 6 mV            (2 %)
    dcs-000_dcs: dc = 138 mV        (46 %), step = 6 mV            (2 %)
    dcs-000_dcs: dc = 144 mV        (48 %), step = 6 mV            (2 %)
    dcs-000_dcs: dc = 150 mV        (50 %), step = 6 mV            (2 %)
    dcs-000_dcs: dc = 156 mV        (52 %), step = 6 mV            (2 %)
    dcs-000_dcs: dc = 162 mV        (54 %), step = 6 mV            (2 %)
    dcs-000_dcs: dc = 168 mV        (56 %), step = 6 mV            (2 %)
    dcs-000_dcs: dc = 174 mV        (58 %), step = 6 mV            (2 %)
    dcs-000_dcs: dc = 180 mV        (60 %), step = 6 mV            (2 %)
    dcs-000_dcs: dc = 186 mV        (62 %), step = 6 mV            (2 %)
    dcs-000_dcs: dc = 192 mV        (64 %), step = 6 mV            (2 %)
    dcs-000_dcs: dc = 198 mV        (66 %), step = 6 mV            (2 %)
    dcs-000_dcs: dc = 204 mV        (68 %), step = 6 mV            (2 %)
    dcs-000_dcs: dc = 210 mV        (70 %), step = 6 mV            (2 %)
    dcs-000_dcs: dc = 216 mV        (72 %), step = 6 mV            (2 %)
    dcs-000_dcs: dc = 222 mV        (74 %), step = 6 mV            (2 %)
    dcs-000_dcs: dc = 228 mV        (76 %), step = 6 mV            (2 %)
    dcs-000_dcs: dc = 234 mV        (78 %), step = 6 mV            (2 %)
    dcs-000_dcs: dc = 240 mV        (80 %), step = 6 mV            (2 %)
    dcs-000_dcs: dc = 246 mV        (82 %), step = 6 mV            (2 %)
    dcs-000_dcs: dc = 252 mV        (84 %), step = 6 mV            (2 %)
    dcs-000_dcs: dc = 258 mV        (86 %), step = 6 mV            (2 %)
    dcs-000_dcs: dc = 264 mV        (88 %), step = 6 mV            (2 %)
    dcs-000_dcs: dc = 270 mV        (90 %), step = 6 mV            (2 %)
    dcs-000_dcs: dc = 276 mV        (92 %), step = 6 mV            (2 %)
    dcs-000_dcs: dc = 282 mV        (94 %), step = 6 mV            (2 %)
    dcs-000_dcs: dc = 288 mV        (96 %), step = 6 mV            (2 %)
    dcs-000_dcs: dc = 294 mV        (98 %), step = 6 mV            (2 %)
    dcs-000_dcs: dc = 300 mV       (100 %), step = 6 mV            (2 %)

Maximum value achieved for any signal of each quantity: 
V: V(net5) = 300 mV
I: I(V0:p) = 19.97 pA
DC simulation time: CPU = 14.998 ms, elapsed = 44.204 ms.

Notice from spectre at dc = 300 mV during DC analysis `dcs-000_dcs', during task `MDLControl'.
    The value of parameter 'dc' has been reset to the original value 0.

Total time required for dc analysis `dcs-000_dcs': CPU = 14.998 ms, elapsed = 44.2512 ms.
Time accumulated: CPU = 2.36664 s, elapsed = 6.32625 s.
Peak resident memory used = 91.2 Mbytes.


Aggregate audit (11:34:03 AM, Tue Dec 21, 2021):
Time used: CPU = 2.38 s, elapsed = 6.43 s, util. = 37%.
Time spent in licensing: elapsed = 233 ms.
Peak memory used = 91.8 Mbytes.
Simulation started at: 11:33:56 AM, Tue Dec 21, 2021, ended at: 11:34:03 AM, Tue Dec 21, 2021, with elapsed time (wall clock): 6.43 s.
spectre completes with 0 errors, 218 warnings, and 398 notices.
