
Spectre (R) Circuit Simulator
Version 19.1.0.396.isr8 64bit -- 19 Jun 2020
Copyright (C) 1989-2020 Cadence Design Systems, Inc. All rights reserved worldwide. Cadence and Spectre are registered trademarks of Cadence Design Systems, Inc. All others are the property of their respective holders.

Includes RSA BSAFE(R) Cryptographic or Security Protocol Software from RSA Security, Inc.

User: VLSI_ANALOG   Host: cad19   HostID: 7F0100   PID: 28234
Memory  available: 324.7349 MB  physical: 3.9726 GB
Linux   : Red Hat Enterprise Linux Server release 6.9 (Santiago)
CPU Type: Intel(R) Core(TM) i5-2320 CPU @ 3.00GHz
All processors running at 1600.0 MHz
        Socket: Processors
        0:       0,  1,  2,  3
        
System load averages (1min, 5min, 15min) : 6.8 %, 5.5 %, 2.2 %


Simulating `./input.scs' on cad19 at 2:56:47 PM, Fri Dec 10, 2021 (process id: 28234).
Current working directory: /home/VLSI_ANALOG/UMC180/Designkits/Cadence_6.1/lowpower28/spectremdl/new/nor
Command line:
    /home/installs/SPECTRE191/tools.lnx86/bin/spectre -64 =mdl  \
        input.mdl ./input.scs

Loading /home/installs/SPECTRE191/tools.lnx86/cmi/lib/64bit/5.0/libinfineon_sh.so ...
Loading /home/installs/SPECTRE191/tools.lnx86/cmi/lib/64bit/5.0/libphilips_o_sh.so ...
Loading /home/installs/SPECTRE191/tools.lnx86/cmi/lib/64bit/5.0/libphilips_sh.so ...
Loading /home/installs/SPECTRE191/tools.lnx86/cmi/lib/64bit/5.0/libsparam_sh.so ...
Loading /home/installs/SPECTRE191/tools.lnx86/cmi/lib/64bit/5.0/libstmodels_sh.so ...
Loading /home/installs/SPECTRE191/tools.lnx86/spectre/lib/64bit/mdl/libSpectreEH_sh.so ...
Reading file:  /home/VLSI_ANALOG/UMC180/Designkits/Cadence_6.1/lowpower28/spectremdl/new/nor/input.mdl
Reading file:  /home/VLSI_ANALOG/UMC180/Designkits/Cadence_6.1/lowpower28/spectremdl/new/nor/input.scs
Reading file:  /home/installs/SPECTRE191/tools.lnx86/spectre/etc/configs/spectre.cfg
Reading file:  /home/VLSI_ANALOG/UMCLib/pdk/UMC/28/_G-01-LOGIC_MIXED_MODE28N-HPC/Designkits/Cadence_IC6/G-9FD-LOGIC_MIXED_MODE28N-HPC_UM028FDKHCC0000OA-FDK-Ver.A14_PB/UM028FDKHCC0000OA_A14_DESIGNKIT/UM028FDKHCC0000OA_A14_PB/Models/Spectre/l28hpc_mm_v1201.lib.scs
Reading file:  /home/VLSI_ANALOG/UMCLib/pdk/UMC/28/_G-01-LOGIC_MIXED_MODE28N-HPC/Designkits/Cadence_IC6/G-9FD-LOGIC_MIXED_MODE28N-HPC_UM028FDKHCC0000OA-FDK-Ver.A14_PB/UM028FDKHCC0000OA_A14_DESIGNKIT/UM028FDKHCC0000OA_A14_PB/Models/Spectre/l28hpc_rf_v017.lib.scs
Time for NDB Parsing: CPU = 4.64829 s, elapsed = 4.95153 s.
Time accumulated: CPU = 4.79527 s, elapsed = 4.95154 s.
Peak resident memory used = 206 Mbytes.


Warning from spectre during hierarchy flattening.
    WARNING (SFE-1131): Scope option `scalefactor' specified with scope `TopCircuit' at line `680' has also been specified at line `729' in file `/home/VLSI_ANALOG/UMCLib/pdk/UMC/28/_G-01-LOGIC_MIXED_MODE28N-HPC/Designkits/Cadence_IC6/G-9FD-LOGIC_MIXED_MODE28N-HPC_UM028FDKHCC0000OA-FDK-Ver.A14_PB/UM028FDKHCC0000OA_A14_DESIGNKIT/UM028FDKHCC0000OA_A14_PB/umc28hpc/../Models/Spectre/l28hpc_rf_v017.lib.scs'. As a result, the last specified value will be used for simulation.

Time for Elaboration: CPU = 64.99 ms, elapsed = 65.3079 ms.
Time accumulated: CPU = 4.86026 s, elapsed = 5.01701 s.
Peak resident memory used = 219 Mbytes.


Warning from spectre during hierarchy flattening.
    WARNING (SPECTRE-17101): The value 'psf' specified for the 'checklimitdest' option will no longer be supported in future releases. Use 'spectre -h' to see other recommended values for the 'checklimitdest' option.


Time for EDB Visiting: CPU = 1 ms, elapsed = 1.2598 ms.
Time accumulated: CPU = 4.86226 s, elapsed = 5.01847 s.
Peak resident memory used = 220 Mbytes.


Global user options:
         psfversion = 1.4.0
            vabstol = 1e-06
            iabstol = 1e-12
               temp = 27
               gmin = 1e-12
             rforce = 1
           maxnotes = 5
           maxwarns = 5
             digits = 5
               cols = 80
             pivrel = 0.001
           sensfile = ../psf/sens.output
     checklimitdest = psf
               save = all
                pwr = all
        scalefactor = 0.9
             reltol = 0.001
               tnom = 27
             scalem = 1
              scale = 1

Scoped user options:

Circuit inventory:
              nodes 5
              bsim4 4     
          capacitor 1     
              diode 2     
            vsource 3     

Analysis and control statement inventory:
                 dc 2     
               info 8     
               tran 1     

Output statements:
             .probe 0     
           .measure 0     
               save 0     

Time for parsing: CPU = 3.999 ms, elapsed = 125.379 ms.
Time accumulated: CPU = 4.86626 s, elapsed = 5.14396 s.
Peak resident memory used = 221 Mbytes.

~~~~~~~~~~~~~~~~~~~~~~
Pre-Simulation Summary
~~~~~~~~~~~~~~~~~~~~~~
~~~~~~~~~~~~~~~~~~~~~~

*************************************************
Transient Analysis `trans': time = (0 s -> 20 us)
*************************************************
DC simulation time: CPU = 1 ms, elapsed = 1.15681 ms.

Opening the PSFXL file ./input.raw/trans.tran.tran ...
Important parameter values:
    start = 0 s
    outputstart = 0 s
    stop = 20 us
    step = 20 ns
    maxstep = 400 ns
    ic = all
    useprevic = no
    skipdc = no
    reltol = 1e-03
    abstol(V) = 1 uV
    abstol(I) = 1 pA
    temp = 27 C
    tnom = 27 C
    tempeffects = all
    errpreset = moderate
    method = traponly
    lteratio = 3.5
    relref = sigglobal
    cmin = 0 F
    gmin = 1 pS


Output and IC/nodeset summary:
                 save   3       (current)
                 save   19      (voltage)
                 others 8       


Notice from spectre at time = 266.016 ps during transient analysis `trans', during task `MDLControl'.
    Found trapezoidal ringing on node I7.PM2:int_g.
Notice from spectre at time = 293.667 ps during transient analysis `trans', during task `MDLControl'.
    Found trapezoidal ringing on node I7.PM2:int_g.
Notice from spectre at time = 348.968 ps during transient analysis `trans', during task `MDLControl'.
    Found trapezoidal ringing on node I7.PM2:int_g.
Notice from spectre at time = 425.549 ps during transient analysis `trans', during task `MDLControl'.
    Found trapezoidal ringing on node I7.PM2:int_g.
Notice from spectre at time = 567.275 ps during transient analysis `trans', during task `MDLControl'.
    Found trapezoidal ringing on node I7.PM2:int_g.
        Further occurrences of this notice will be suppressed.

......9......8......7......6......5
`AutoStop = yes'. Analysis finished at 10 us.

Number of accepted tran steps =             127

Notice from spectre during transient analysis `trans', during task `MDLControl'.
    Trapezoidal ringing is detected during tran analysis.
        Please use method=trap for better results and performance.


Maximum value achieved for any signal of each quantity: 
V: V(I7.PM0:int_d) = 330.8 mV
I: I(V0:p) = 18.11 uA
If your circuit contains signals of the same quantity that are vastly different in size (such as high voltage circuitry combined with low voltage control circuitry), you should consider specifying global option `bin_relref=yes'.

~~~~~~~~~~~~~~~~~~~~~~~~~~~~~~~~~
Post-Transient Simulation Summary
~~~~~~~~~~~~~~~~~~~~~~~~~~~~~~~~~
   -   To further speed up simulation, consider
          add ++aps on command line
~~~~~~~~~~~~~~~~~~~~~~~~~~~~~~~~~


During simulation, the CPU load for active processors is :
         0 (1.8 %)       1 (2.9 %)       3 (89.9 %)     
        Total: 94.9%
Initial condition solution time: CPU = 1 ms, elapsed = 1.25599 ms.
Intrinsic tran analysis time:    CPU = 20.996 ms, elapsed = 59.3839 ms.
Total time required for tran analysis `trans': CPU = 26.996 ms, elapsed = 65.8119 ms.
Time accumulated: CPU = 4.90025 s, elapsed = 5.22898 s.
Peak resident memory used = 225 Mbytes.


Notice from spectre during task `MDLControl'.
    47 notices suppressed.


******************************************
DC Analysis `dcs': V0:dc = (0 V -> 300 mV)
******************************************

Opening the PSF file ./input.raw/dcs.dc ...
Important parameter values:
    reltol = 1e-03
    abstol(V) = 1 uV
    abstol(I) = 1 pA
    temp = 27 C
    tnom = 27 C
    tempeffects = all
    gmindc = 1 pS
    dcs: dc = 12 mV          (4 %), step = 6 mV            (2 %)
    dcs: dc = 18 mV          (6 %), step = 6 mV            (2 %)
    dcs: dc = 24 mV          (8 %), step = 6 mV            (2 %)
    dcs: dc = 30 mV         (10 %), step = 6 mV            (2 %)
    dcs: dc = 36 mV         (12 %), step = 6 mV            (2 %)
    dcs: dc = 42 mV         (14 %), step = 6 mV            (2 %)
    dcs: dc = 48 mV         (16 %), step = 6 mV            (2 %)
    dcs: dc = 54 mV         (18 %), step = 6 mV            (2 %)
    dcs: dc = 60 mV         (20 %), step = 6 mV            (2 %)
    dcs: dc = 66 mV         (22 %), step = 6 mV            (2 %)
    dcs: dc = 72 mV         (24 %), step = 6 mV            (2 %)
    dcs: dc = 78 mV         (26 %), step = 6 mV            (2 %)
    dcs: dc = 84 mV         (28 %), step = 6 mV            (2 %)
    dcs: dc = 90 mV         (30 %), step = 6 mV            (2 %)
    dcs: dc = 96 mV         (32 %), step = 6 mV            (2 %)
    dcs: dc = 102 mV        (34 %), step = 6 mV            (2 %)
    dcs: dc = 108 mV        (36 %), step = 6 mV            (2 %)
    dcs: dc = 114 mV        (38 %), step = 6 mV            (2 %)
    dcs: dc = 120 mV        (40 %), step = 6 mV            (2 %)
    dcs: dc = 126 mV        (42 %), step = 6 mV            (2 %)
    dcs: dc = 132 mV        (44 %), step = 6 mV            (2 %)
    dcs: dc = 138 mV        (46 %), step = 6 mV            (2 %)
    dcs: dc = 144 mV        (48 %), step = 6 mV            (2 %)
    dcs: dc = 150 mV        (50 %), step = 6 mV            (2 %)
    dcs: dc = 156 mV        (52 %), step = 6 mV            (2 %)
    dcs: dc = 162 mV        (54 %), step = 6 mV            (2 %)
    dcs: dc = 168 mV        (56 %), step = 6 mV            (2 %)
    dcs: dc = 174 mV        (58 %), step = 6 mV            (2 %)
    dcs: dc = 180 mV        (60 %), step = 6 mV            (2 %)
    dcs: dc = 186 mV        (62 %), step = 6 mV            (2 %)
    dcs: dc = 192 mV        (64 %), step = 6 mV            (2 %)
    dcs: dc = 198 mV        (66 %), step = 6 mV            (2 %)
    dcs: dc = 204 mV        (68 %), step = 6 mV            (2 %)
    dcs: dc = 210 mV        (70 %), step = 6 mV            (2 %)
    dcs: dc = 216 mV        (72 %), step = 6 mV            (2 %)
    dcs: dc = 222 mV        (74 %), step = 6 mV            (2 %)
    dcs: dc = 228 mV        (76 %), step = 6 mV            (2 %)
    dcs: dc = 234 mV        (78 %), step = 6 mV            (2 %)
    dcs: dc = 240 mV        (80 %), step = 6 mV            (2 %)
    dcs: dc = 246 mV        (82 %), step = 6 mV            (2 %)
    dcs: dc = 252 mV        (84 %), step = 6 mV            (2 %)
    dcs: dc = 258 mV        (86 %), step = 6 mV            (2 %)
    dcs: dc = 264 mV        (88 %), step = 6 mV            (2 %)
    dcs: dc = 270 mV        (90 %), step = 6 mV            (2 %)
    dcs: dc = 276 mV        (92 %), step = 6 mV            (2 %)
    dcs: dc = 282 mV        (94 %), step = 6 mV            (2 %)
    dcs: dc = 288 mV        (96 %), step = 6 mV            (2 %)
    dcs: dc = 294 mV        (98 %), step = 6 mV            (2 %)
    dcs: dc = 300 mV       (100 %), step = 6 mV            (2 %)

Maximum value achieved for any signal of each quantity: 
V: V(net7) = 300 mV
I: I(V1:p) = 5.681 nA
DC simulation time: CPU = 21.997 ms, elapsed = 60.533 ms.

Notice from spectre at dc = 300 mV during DC analysis `dcs', during task `MDLControl'.
    The value of parameter 'dc' has been reset to the original value 0.

Total time required for dc analysis `dcs': CPU = 21.997 ms, elapsed = 60.58 ms.
Time accumulated: CPU = 4.92525 s, elapsed = 5.33958 s.
Peak resident memory used = 226 Mbytes.


Warning from spectre.
    WARNING (SPECTRE-17101): The value 'psf' specified for the 'checklimitdest' option will no longer be supported in future releases. Use 'spectre -h' to see other recommended values for the 'checklimitdest' option.
    WARNING (SPECTRE-17101): The value 'psf' specified for the 'checklimitdest' option will no longer be supported in future releases. Use 'spectre -h' to see other recommended values for the 'checklimitdest' option.
    WARNING (SPECTRE-17101): The value 'psf' specified for the 'checklimitdest' option will no longer be supported in future releases. Use 'spectre -h' to see other recommended values for the 'checklimitdest' option.


Opening the PSF file ./input.raw/trans.optimize ...

***********************************************************
Transient Analysis `trans-000_trans': time = (0 s -> 20 us)
***********************************************************
DC simulation time: CPU = 999 us, elapsed = 748.873 us.

Opening the PSFXL file ./input.raw/trans-000_trans.tran.tran ...
Important parameter values:
    start = 0 s
    outputstart = 0 s
    stop = 20 us
    step = 20 ns
    maxstep = 400 ns
    ic = all
    useprevic = no
    skipdc = no
    reltol = 1e-03
    abstol(V) = 1 uV
    abstol(I) = 1 pA
    temp = 27 C
    tnom = 27 C
    tempeffects = all
    errpreset = moderate
    method = traponly
    lteratio = 3.5
    relref = sigglobal
    cmin = 0 F
    gmin = 1 pS


Output and IC/nodeset summary:
                 save   3       (current)
                 save   19      (voltage)
                 others 8       


Notice from spectre at time = 1.17996 ns during transient analysis `trans-000_trans', during task `MDLControl'.
    Found trapezoidal ringing on node I7.PM2:int_g.
Notice from spectre at time = 1.18198 ns during transient analysis `trans-000_trans', during task `MDLControl'.
    Found trapezoidal ringing on node I7.PM2:int_g.
Notice from spectre at time = 1.2219 ns during transient analysis `trans-000_trans', during task `MDLControl'.
    Found trapezoidal ringing on node I7.PM2:int_g.
Notice from spectre at time = 1.30173 ns during transient analysis `trans-000_trans', during task `MDLControl'.
    Found trapezoidal ringing on node I7.PM2:int_g.

......9.

Notice from spectre at time = 2.73543 us during transient analysis `trans-000_trans', during task `MDLControl'.
    Found trapezoidal ringing on node V0:p.
        Further occurrences of this notice will be suppressed.

......9......8......7......6......5
`AutoStop = yes'. Analysis finished at 10 us.

Number of accepted tran steps =             119

Notice from spectre during transient analysis `trans-000_trans', during task `MDLControl'.
    Trapezoidal ringing is detected during tran analysis.
        Please use method=trap for better results and performance.


Maximum value achieved for any signal of each quantity: 
V: V(I7.PM0:int_d) = 348.4 mV
I: I(V0:p) = 14.75 uA
If your circuit contains signals of the same quantity that are vastly different in size (such as high voltage circuitry combined with low voltage control circuitry), you should consider specifying global option `bin_relref=yes'.

~~~~~~~~~~~~~~~~~~~~~~~~~~~~~~~~~
Post-Transient Simulation Summary
~~~~~~~~~~~~~~~~~~~~~~~~~~~~~~~~~
   -   To further speed up simulation, consider
          add ++aps on command line
~~~~~~~~~~~~~~~~~~~~~~~~~~~~~~~~~


During simulation, the CPU load for active processors is :
         0 (4.0 %)       1 (3.1 %)       3 (84.5 %)     
        Total: 92.5%
Initial condition solution time: CPU = 999 us, elapsed = 793.934 us.
Intrinsic tran analysis time:    CPU = 17.998 ms, elapsed = 51.986 ms.
Total time required for tran analysis `trans-000_trans': CPU = 22.997 ms, elapsed = 68.388 ms.
Time accumulated: CPU = 5.01024 s, elapsed = 5.57567 s.
Peak resident memory used = 226 Mbytes.


Notice from spectre during task `MDLControl'.
    33 notices suppressed.


Opening the PSF file ./input.raw/dcs.optimize ...

**************************************************
DC Analysis `dcs-000_dcs': V0:dc = (0 V -> 300 mV)
**************************************************

Opening the PSF file ./input.raw/dcs-000_dcs.dc ...
Important parameter values:
    reltol = 1e-03
    abstol(V) = 1 uV
    abstol(I) = 1 pA
    temp = 27 C
    tnom = 27 C
    tempeffects = all
    gmindc = 1 pS
    dcs-000_dcs: dc = 12 mV          (4 %), step = 6 mV            (2 %)
    dcs-000_dcs: dc = 18 mV          (6 %), step = 6 mV            (2 %)
    dcs-000_dcs: dc = 24 mV          (8 %), step = 6 mV            (2 %)
    dcs-000_dcs: dc = 30 mV         (10 %), step = 6 mV            (2 %)
    dcs-000_dcs: dc = 36 mV         (12 %), step = 6 mV            (2 %)
    dcs-000_dcs: dc = 42 mV         (14 %), step = 6 mV            (2 %)
    dcs-000_dcs: dc = 48 mV         (16 %), step = 6 mV            (2 %)
    dcs-000_dcs: dc = 54 mV         (18 %), step = 6 mV            (2 %)
    dcs-000_dcs: dc = 60 mV         (20 %), step = 6 mV            (2 %)
    dcs-000_dcs: dc = 66 mV         (22 %), step = 6 mV            (2 %)
    dcs-000_dcs: dc = 72 mV         (24 %), step = 6 mV            (2 %)
    dcs-000_dcs: dc = 78 mV         (26 %), step = 6 mV            (2 %)
    dcs-000_dcs: dc = 84 mV         (28 %), step = 6 mV            (2 %)
    dcs-000_dcs: dc = 90 mV         (30 %), step = 6 mV            (2 %)
    dcs-000_dcs: dc = 96 mV         (32 %), step = 6 mV            (2 %)
    dcs-000_dcs: dc = 102 mV        (34 %), step = 6 mV            (2 %)
    dcs-000_dcs: dc = 108 mV        (36 %), step = 6 mV            (2 %)
    dcs-000_dcs: dc = 114 mV        (38 %), step = 6 mV            (2 %)
    dcs-000_dcs: dc = 120 mV        (40 %), step = 6 mV            (2 %)
    dcs-000_dcs: dc = 126 mV        (42 %), step = 6 mV            (2 %)
    dcs-000_dcs: dc = 132 mV        (44 %), step = 6 mV            (2 %)
    dcs-000_dcs: dc = 138 mV        (46 %), step = 6 mV            (2 %)
    dcs-000_dcs: dc = 144 mV        (48 %), step = 6 mV            (2 %)
    dcs-000_dcs: dc = 150 mV        (50 %), step = 6 mV            (2 %)
    dcs-000_dcs: dc = 156 mV        (52 %), step = 6 mV            (2 %)
    dcs-000_dcs: dc = 162 mV        (54 %), step = 6 mV            (2 %)
    dcs-000_dcs: dc = 168 mV        (56 %), step = 6 mV            (2 %)
    dcs-000_dcs: dc = 174 mV        (58 %), step = 6 mV            (2 %)
    dcs-000_dcs: dc = 180 mV        (60 %), step = 6 mV            (2 %)
    dcs-000_dcs: dc = 186 mV        (62 %), step = 6 mV            (2 %)
    dcs-000_dcs: dc = 192 mV        (64 %), step = 6 mV            (2 %)
    dcs-000_dcs: dc = 198 mV        (66 %), step = 6 mV            (2 %)
    dcs-000_dcs: dc = 204 mV        (68 %), step = 6 mV            (2 %)
    dcs-000_dcs: dc = 210 mV        (70 %), step = 6 mV            (2 %)
    dcs-000_dcs: dc = 216 mV        (72 %), step = 6 mV            (2 %)
    dcs-000_dcs: dc = 222 mV        (74 %), step = 6 mV            (2 %)
    dcs-000_dcs: dc = 228 mV        (76 %), step = 6 mV            (2 %)
    dcs-000_dcs: dc = 234 mV        (78 %), step = 6 mV            (2 %)
    dcs-000_dcs: dc = 240 mV        (80 %), step = 6 mV            (2 %)
    dcs-000_dcs: dc = 246 mV        (82 %), step = 6 mV            (2 %)
    dcs-000_dcs: dc = 252 mV        (84 %), step = 6 mV            (2 %)
    dcs-000_dcs: dc = 258 mV        (86 %), step = 6 mV            (2 %)
    dcs-000_dcs: dc = 264 mV        (88 %), step = 6 mV            (2 %)
    dcs-000_dcs: dc = 270 mV        (90 %), step = 6 mV            (2 %)

Notice from spectre at dc = 276 mV during DC analysis `dcs-000_dcs', during task `MDLControl'.
    GminDC = 1 pS is large enough to noticeably affect the DC solution.
        dV(I7.PM0:int_d) = 62.1648 uV
        Use the `gmin_check' option to eliminate or expand this report.

    dcs-000_dcs: dc = 276 mV        (92 %), step = 6 mV            (2 %)

Notice from spectre at dc = 282 mV during DC analysis `dcs-000_dcs', during task `MDLControl'.
    GminDC = 1 pS is large enough to noticeably affect the DC solution.
        dV(I7.PM0:int_d) = 74.1363 uV
        Use the `gmin_check' option to eliminate or expand this report.

    dcs-000_dcs: dc = 282 mV        (94 %), step = 6 mV            (2 %)

Notice from spectre at dc = 288 mV during DC analysis `dcs-000_dcs', during task `MDLControl'.
    GminDC = 1 pS is large enough to noticeably affect the DC solution.
        dV(I7.PM0:int_d) = 87.975 uV
        Use the `gmin_check' option to eliminate or expand this report.

    dcs-000_dcs: dc = 288 mV        (96 %), step = 6 mV            (2 %)

Notice from spectre at dc = 294 mV during DC analysis `dcs-000_dcs', during task `MDLControl'.
    GminDC = 1 pS is large enough to noticeably affect the DC solution.
        dV(I7.PM0:int_d) = 103.846 uV
        Use the `gmin_check' option to eliminate or expand this report.

    dcs-000_dcs: dc = 294 mV        (98 %), step = 6 mV            (2 %)

Notice from spectre at dc = 300 mV during DC analysis `dcs-000_dcs', during task `MDLControl'.
    GminDC = 1 pS is large enough to noticeably affect the DC solution.
        Further occurrences of this notice will be suppressed.
        dV(I7.PM0:int_d) = 121.899 uV
        Further occurrences of this notice will be suppressed.
        Use the `gmin_check' option to eliminate or expand this report.
        Further occurrences of this notice will be suppressed.

    dcs-000_dcs: dc = 300 mV       (100 %), step = 6 mV            (2 %)

Maximum value achieved for any signal of each quantity: 
V: V(net7) = 300 mV
I: I(V1:p) = 120.9 pA
DC simulation time: CPU = 21.997 ms, elapsed = 61.7399 ms.

Notice from spectre at dc = 300 mV during DC analysis `dcs-000_dcs', during task `MDLControl'.
    The value of parameter 'dc' has been reset to the original value 0.

Total time required for dc analysis `dcs-000_dcs': CPU = 21.997 ms, elapsed = 61.784 ms.
Time accumulated: CPU = 5.04123 s, elapsed = 5.71913 s.
Peak resident memory used = 226 Mbytes.


Warning from spectre.
    WARNING (SPECTRE-17101): The value 'psf' specified for the 'checklimitdest' option will no longer be supported in future releases. Use 'spectre -h' to see other recommended values for the 'checklimitdest' option.


***********************************************************
Transient Analysis `trans-000_trans': time = (0 s -> 20 us)
***********************************************************
DC simulation time: CPU = 0 s, elapsed = 387.907 us.

Opening the PSFXL file ./input.raw/trans-000_trans.tran.tran ...
Important parameter values:
    start = 0 s
    outputstart = 0 s
    stop = 20 us
    step = 20 ns
    maxstep = 400 ns
    ic = all
    useprevic = no
    skipdc = no
    reltol = 1e-03
    abstol(V) = 1 uV
    abstol(I) = 1 pA
    temp = 27 C
    tnom = 27 C
    tempeffects = all
    errpreset = moderate
    method = traponly
    lteratio = 3.5
    relref = sigglobal
    cmin = 0 F
    gmin = 1 pS


Output and IC/nodeset summary:
                 save   3       (current)
                 save   19      (voltage)
                 others 8       


Notice from spectre at time = 1.18011 ns during transient analysis `trans-000_trans', during task `MDLControl'.
    Found trapezoidal ringing on node I7.PM2:int_g.
Notice from spectre at time = 1.18214 ns during transient analysis `trans-000_trans', during task `MDLControl'.
    Found trapezoidal ringing on node I7.PM2:int_g.
Notice from spectre at time = 1.22205 ns during transient analysis `trans-000_trans', during task `MDLControl'.
    Found trapezoidal ringing on node I7.PM2:int_g.
Notice from spectre at time = 1.30189 ns during transient analysis `trans-000_trans', during task `MDLControl'.
    Found trapezoidal ringing on node I7.PM2:int_g.

......9.

Notice from spectre at time = 2.7355 us during transient analysis `trans-000_trans', during task `MDLControl'.
    Found trapezoidal ringing on node V0:p.
        Further occurrences of this notice will be suppressed.

......9......8......7......6......5
`AutoStop = yes'. Analysis finished at 10 us.

Number of accepted tran steps =             119

Notice from spectre during transient analysis `trans-000_trans', during task `MDLControl'.
    Trapezoidal ringing is detected during tran analysis.
        Please use method=trap for better results and performance.


Maximum value achieved for any signal of each quantity: 
V: V(I7.PM0:int_d) = 348.4 mV
I: I(V0:p) = 14.76 uA
If your circuit contains signals of the same quantity that are vastly different in size (such as high voltage circuitry combined with low voltage control circuitry), you should consider specifying global option `bin_relref=yes'.

~~~~~~~~~~~~~~~~~~~~~~~~~~~~~~~~~
Post-Transient Simulation Summary
~~~~~~~~~~~~~~~~~~~~~~~~~~~~~~~~~
   -   To further speed up simulation, consider
          add ++aps on command line
~~~~~~~~~~~~~~~~~~~~~~~~~~~~~~~~~


During simulation, the CPU load for active processors is :
         0 (5.1 %)       1 (3.7 %)       2 (1.1 %)       3 (81.3 %)
        Total: 91.1%
Initial condition solution time: CPU = 0 s, elapsed = 428.2 us.
Intrinsic tran analysis time:    CPU = 24.997 ms, elapsed = 54.4181 ms.
Total time required for tran analysis `trans-000_trans': CPU = 26.997 ms, elapsed = 56.9291 ms.
Time accumulated: CPU = 5.09022 s, elapsed = 5.79932 s.
Peak resident memory used = 226 Mbytes.


Notice from spectre during task `MDLControl'.
    33 notices suppressed.


**************************************************
DC Analysis `dcs-000_dcs': V0:dc = (0 V -> 300 mV)
**************************************************

Opening the PSF file ./input.raw/dcs-000_dcs.dc ...
Important parameter values:
    reltol = 1e-03
    abstol(V) = 1 uV
    abstol(I) = 1 pA
    temp = 27 C
    tnom = 27 C
    tempeffects = all
    gmindc = 1 pS
    dcs-000_dcs: dc = 12 mV          (4 %), step = 6 mV            (2 %)
    dcs-000_dcs: dc = 18 mV          (6 %), step = 6 mV            (2 %)
    dcs-000_dcs: dc = 24 mV          (8 %), step = 6 mV            (2 %)
    dcs-000_dcs: dc = 30 mV         (10 %), step = 6 mV            (2 %)
    dcs-000_dcs: dc = 36 mV         (12 %), step = 6 mV            (2 %)
    dcs-000_dcs: dc = 42 mV         (14 %), step = 6 mV            (2 %)
    dcs-000_dcs: dc = 48 mV         (16 %), step = 6 mV            (2 %)
    dcs-000_dcs: dc = 54 mV         (18 %), step = 6 mV            (2 %)
    dcs-000_dcs: dc = 60 mV         (20 %), step = 6 mV            (2 %)
    dcs-000_dcs: dc = 66 mV         (22 %), step = 6 mV            (2 %)
    dcs-000_dcs: dc = 72 mV         (24 %), step = 6 mV            (2 %)
    dcs-000_dcs: dc = 78 mV         (26 %), step = 6 mV            (2 %)
    dcs-000_dcs: dc = 84 mV         (28 %), step = 6 mV            (2 %)
    dcs-000_dcs: dc = 90 mV         (30 %), step = 6 mV            (2 %)
    dcs-000_dcs: dc = 96 mV         (32 %), step = 6 mV            (2 %)
    dcs-000_dcs: dc = 102 mV        (34 %), step = 6 mV            (2 %)
    dcs-000_dcs: dc = 108 mV        (36 %), step = 6 mV            (2 %)
    dcs-000_dcs: dc = 114 mV        (38 %), step = 6 mV            (2 %)
    dcs-000_dcs: dc = 120 mV        (40 %), step = 6 mV            (2 %)
    dcs-000_dcs: dc = 126 mV        (42 %), step = 6 mV            (2 %)
    dcs-000_dcs: dc = 132 mV        (44 %), step = 6 mV            (2 %)
    dcs-000_dcs: dc = 138 mV        (46 %), step = 6 mV            (2 %)
    dcs-000_dcs: dc = 144 mV        (48 %), step = 6 mV            (2 %)
    dcs-000_dcs: dc = 150 mV        (50 %), step = 6 mV            (2 %)
    dcs-000_dcs: dc = 156 mV        (52 %), step = 6 mV            (2 %)
    dcs-000_dcs: dc = 162 mV        (54 %), step = 6 mV            (2 %)
    dcs-000_dcs: dc = 168 mV        (56 %), step = 6 mV            (2 %)
    dcs-000_dcs: dc = 174 mV        (58 %), step = 6 mV            (2 %)
    dcs-000_dcs: dc = 180 mV        (60 %), step = 6 mV            (2 %)
    dcs-000_dcs: dc = 186 mV        (62 %), step = 6 mV            (2 %)
    dcs-000_dcs: dc = 192 mV        (64 %), step = 6 mV            (2 %)
    dcs-000_dcs: dc = 198 mV        (66 %), step = 6 mV            (2 %)
    dcs-000_dcs: dc = 204 mV        (68 %), step = 6 mV            (2 %)
    dcs-000_dcs: dc = 210 mV        (70 %), step = 6 mV            (2 %)
    dcs-000_dcs: dc = 216 mV        (72 %), step = 6 mV            (2 %)
    dcs-000_dcs: dc = 222 mV        (74 %), step = 6 mV            (2 %)
    dcs-000_dcs: dc = 228 mV        (76 %), step = 6 mV            (2 %)
    dcs-000_dcs: dc = 234 mV        (78 %), step = 6 mV            (2 %)
    dcs-000_dcs: dc = 240 mV        (80 %), step = 6 mV            (2 %)
    dcs-000_dcs: dc = 246 mV        (82 %), step = 6 mV            (2 %)
    dcs-000_dcs: dc = 252 mV        (84 %), step = 6 mV            (2 %)
    dcs-000_dcs: dc = 258 mV        (86 %), step = 6 mV            (2 %)
    dcs-000_dcs: dc = 264 mV        (88 %), step = 6 mV            (2 %)
    dcs-000_dcs: dc = 270 mV        (90 %), step = 6 mV            (2 %)

Notice from spectre at dc = 276 mV during DC analysis `dcs-000_dcs', during task `MDLControl'.
    GminDC = 1 pS is large enough to noticeably affect the DC solution.
        dV(I7.PM0:int_d) = 62.093 uV
        Use the `gmin_check' option to eliminate or expand this report.

    dcs-000_dcs: dc = 276 mV        (92 %), step = 6 mV            (2 %)

Notice from spectre at dc = 282 mV during DC analysis `dcs-000_dcs', during task `MDLControl'.
    GminDC = 1 pS is large enough to noticeably affect the DC solution.
        dV(I7.PM0:int_d) = 74.0504 uV
        Use the `gmin_check' option to eliminate or expand this report.

    dcs-000_dcs: dc = 282 mV        (94 %), step = 6 mV            (2 %)

Notice from spectre at dc = 288 mV during DC analysis `dcs-000_dcs', during task `MDLControl'.
    GminDC = 1 pS is large enough to noticeably affect the DC solution.
        dV(I7.PM0:int_d) = 87.8725 uV
        Use the `gmin_check' option to eliminate or expand this report.

    dcs-000_dcs: dc = 288 mV        (96 %), step = 6 mV            (2 %)

Notice from spectre at dc = 294 mV during DC analysis `dcs-000_dcs', during task `MDLControl'.
    GminDC = 1 pS is large enough to noticeably affect the DC solution.
        dV(I7.PM0:int_d) = 103.724 uV
        Use the `gmin_check' option to eliminate or expand this report.

    dcs-000_dcs: dc = 294 mV        (98 %), step = 6 mV            (2 %)

Notice from spectre at dc = 300 mV during DC analysis `dcs-000_dcs', during task `MDLControl'.
    GminDC = 1 pS is large enough to noticeably affect the DC solution.
        Further occurrences of this notice will be suppressed.
        dV(I7.PM0:int_d) = 121.755 uV
        Further occurrences of this notice will be suppressed.
        Use the `gmin_check' option to eliminate or expand this report.
        Further occurrences of this notice will be suppressed.

    dcs-000_dcs: dc = 300 mV       (100 %), step = 6 mV            (2 %)

Maximum value achieved for any signal of each quantity: 
V: V(net7) = 300 mV
I: I(V1:p) = 121.1 pA
DC simulation time: CPU = 15.998 ms, elapsed = 55.2421 ms.

Notice from spectre at dc = 300 mV during DC analysis `dcs-000_dcs', during task `MDLControl'.
    The value of parameter 'dc' has been reset to the original value 0.

Total time required for dc analysis `dcs-000_dcs': CPU = 15.998 ms, elapsed = 55.289 ms.
Time accumulated: CPU = 5.10622 s, elapsed = 5.85516 s.
Peak resident memory used = 226 Mbytes.


Warning from spectre.
    WARNING (SPECTRE-17101): The value 'psf' specified for the 'checklimitdest' option will no longer be supported in future releases. Use 'spectre -h' to see other recommended values for the 'checklimitdest' option.
    WARNING (SPECTRE-17101): The value 'psf' specified for the 'checklimitdest' option will no longer be supported in future releases. Use 'spectre -h' to see other recommended values for the 'checklimitdest' option.


***********************************************************
Transient Analysis `trans-000_trans': time = (0 s -> 20 us)
***********************************************************
DC simulation time: CPU = 0 s, elapsed = 397.205 us.

Opening the PSFXL file ./input.raw/trans-000_trans.tran.tran ...
Important parameter values:
    start = 0 s
    outputstart = 0 s
    stop = 20 us
    step = 20 ns
    maxstep = 400 ns
    ic = all
    useprevic = no
    skipdc = no
    reltol = 1e-03
    abstol(V) = 1 uV
    abstol(I) = 1 pA
    temp = 27 C
    tnom = 27 C
    tempeffects = all
    errpreset = moderate
    method = traponly
    lteratio = 3.5
    relref = sigglobal
    cmin = 0 F
    gmin = 1 pS


Output and IC/nodeset summary:
                 save   3       (current)
                 save   19      (voltage)
                 others 8       


Notice from spectre at time = 1.17931 ns during transient analysis `trans-000_trans', during task `MDLControl'.
    Found trapezoidal ringing on node I7.PM2:int_g.
Notice from spectre at time = 1.18134 ns during transient analysis `trans-000_trans', during task `MDLControl'.
    Found trapezoidal ringing on node I7.PM2:int_g.
Notice from spectre at time = 1.22121 ns during transient analysis `trans-000_trans', during task `MDLControl'.
    Found trapezoidal ringing on node I7.PM2:int_g.
Notice from spectre at time = 1.30096 ns during transient analysis `trans-000_trans', during task `MDLControl'.
    Found trapezoidal ringing on node I7.PM2:int_g.

......9.

Notice from spectre at time = 2.7342 us during transient analysis `trans-000_trans', during task `MDLControl'.
    Found trapezoidal ringing on node V0:p.
        Further occurrences of this notice will be suppressed.

......9......8......7......6......5
`AutoStop = yes'. Analysis finished at 10 us.

Number of accepted tran steps =             119

Notice from spectre during transient analysis `trans-000_trans', during task `MDLControl'.
    Trapezoidal ringing is detected during tran analysis.
        Please use method=trap for better results and performance.


Maximum value achieved for any signal of each quantity: 
V: V(I7.PM0:int_d) = 348.4 mV
I: I(V0:p) = 14.76 uA
If your circuit contains signals of the same quantity that are vastly different in size (such as high voltage circuitry combined with low voltage control circuitry), you should consider specifying global option `bin_relref=yes'.

~~~~~~~~~~~~~~~~~~~~~~~~~~~~~~~~~
Post-Transient Simulation Summary
~~~~~~~~~~~~~~~~~~~~~~~~~~~~~~~~~
   -   To further speed up simulation, consider
          add ++aps on command line
~~~~~~~~~~~~~~~~~~~~~~~~~~~~~~~~~


During simulation, the CPU load for active processors is :
         0 (6.7 %)       1 (3.6 %)       2 (1.2 %)       3 (79.3 %)
        Total: 90.8%
Initial condition solution time: CPU = 0 s, elapsed = 437.021 us.
Intrinsic tran analysis time:    CPU = 23.997 ms, elapsed = 47.8871 ms.
Total time required for tran analysis `trans-000_trans': CPU = 25.996 ms, elapsed = 50.4448 ms.
Time accumulated: CPU = 5.16621 s, elapsed = 5.9408 s.
Peak resident memory used = 226 Mbytes.


Notice from spectre during task `MDLControl'.
    33 notices suppressed.


**************************************************
DC Analysis `dcs-000_dcs': V0:dc = (0 V -> 300 mV)
**************************************************

Opening the PSF file ./input.raw/dcs-000_dcs.dc ...
Important parameter values:
    reltol = 1e-03
    abstol(V) = 1 uV
    abstol(I) = 1 pA
    temp = 27 C
    tnom = 27 C
    tempeffects = all
    gmindc = 1 pS
    dcs-000_dcs: dc = 12 mV          (4 %), step = 6 mV            (2 %)
    dcs-000_dcs: dc = 18 mV          (6 %), step = 6 mV            (2 %)
    dcs-000_dcs: dc = 24 mV          (8 %), step = 6 mV            (2 %)
    dcs-000_dcs: dc = 30 mV         (10 %), step = 6 mV            (2 %)
    dcs-000_dcs: dc = 36 mV         (12 %), step = 6 mV            (2 %)
    dcs-000_dcs: dc = 42 mV         (14 %), step = 6 mV            (2 %)
    dcs-000_dcs: dc = 48 mV         (16 %), step = 6 mV            (2 %)
    dcs-000_dcs: dc = 54 mV         (18 %), step = 6 mV            (2 %)
    dcs-000_dcs: dc = 60 mV         (20 %), step = 6 mV            (2 %)
    dcs-000_dcs: dc = 66 mV         (22 %), step = 6 mV            (2 %)
    dcs-000_dcs: dc = 72 mV         (24 %), step = 6 mV            (2 %)
    dcs-000_dcs: dc = 78 mV         (26 %), step = 6 mV            (2 %)
    dcs-000_dcs: dc = 84 mV         (28 %), step = 6 mV            (2 %)
    dcs-000_dcs: dc = 90 mV         (30 %), step = 6 mV            (2 %)
    dcs-000_dcs: dc = 96 mV         (32 %), step = 6 mV            (2 %)
    dcs-000_dcs: dc = 102 mV        (34 %), step = 6 mV            (2 %)
    dcs-000_dcs: dc = 108 mV        (36 %), step = 6 mV            (2 %)
    dcs-000_dcs: dc = 114 mV        (38 %), step = 6 mV            (2 %)
    dcs-000_dcs: dc = 120 mV        (40 %), step = 6 mV            (2 %)
    dcs-000_dcs: dc = 126 mV        (42 %), step = 6 mV            (2 %)
    dcs-000_dcs: dc = 132 mV        (44 %), step = 6 mV            (2 %)
    dcs-000_dcs: dc = 138 mV        (46 %), step = 6 mV            (2 %)
    dcs-000_dcs: dc = 144 mV        (48 %), step = 6 mV            (2 %)
    dcs-000_dcs: dc = 150 mV        (50 %), step = 6 mV            (2 %)
    dcs-000_dcs: dc = 156 mV        (52 %), step = 6 mV            (2 %)
    dcs-000_dcs: dc = 162 mV        (54 %), step = 6 mV            (2 %)
    dcs-000_dcs: dc = 168 mV        (56 %), step = 6 mV            (2 %)
    dcs-000_dcs: dc = 174 mV        (58 %), step = 6 mV            (2 %)
    dcs-000_dcs: dc = 180 mV        (60 %), step = 6 mV            (2 %)
    dcs-000_dcs: dc = 186 mV        (62 %), step = 6 mV            (2 %)
    dcs-000_dcs: dc = 192 mV        (64 %), step = 6 mV            (2 %)
    dcs-000_dcs: dc = 198 mV        (66 %), step = 6 mV            (2 %)
    dcs-000_dcs: dc = 204 mV        (68 %), step = 6 mV            (2 %)
    dcs-000_dcs: dc = 210 mV        (70 %), step = 6 mV            (2 %)
    dcs-000_dcs: dc = 216 mV        (72 %), step = 6 mV            (2 %)
    dcs-000_dcs: dc = 222 mV        (74 %), step = 6 mV            (2 %)
    dcs-000_dcs: dc = 228 mV        (76 %), step = 6 mV            (2 %)
    dcs-000_dcs: dc = 234 mV        (78 %), step = 6 mV            (2 %)
    dcs-000_dcs: dc = 240 mV        (80 %), step = 6 mV            (2 %)
    dcs-000_dcs: dc = 246 mV        (82 %), step = 6 mV            (2 %)
    dcs-000_dcs: dc = 252 mV        (84 %), step = 6 mV            (2 %)
    dcs-000_dcs: dc = 258 mV        (86 %), step = 6 mV            (2 %)
    dcs-000_dcs: dc = 264 mV        (88 %), step = 6 mV            (2 %)
    dcs-000_dcs: dc = 270 mV        (90 %), step = 6 mV            (2 %)

Notice from spectre at dc = 276 mV during DC analysis `dcs-000_dcs', during task `MDLControl'.
    GminDC = 1 pS is large enough to noticeably affect the DC solution.
        dV(I7.PM0:int_d) = 62.1648 uV
        Use the `gmin_check' option to eliminate or expand this report.

    dcs-000_dcs: dc = 276 mV        (92 %), step = 6 mV            (2 %)

Notice from spectre at dc = 282 mV during DC analysis `dcs-000_dcs', during task `MDLControl'.
    GminDC = 1 pS is large enough to noticeably affect the DC solution.
        dV(I7.PM0:int_d) = 74.1363 uV
        Use the `gmin_check' option to eliminate or expand this report.

    dcs-000_dcs: dc = 282 mV        (94 %), step = 6 mV            (2 %)

Notice from spectre at dc = 288 mV during DC analysis `dcs-000_dcs', during task `MDLControl'.
    GminDC = 1 pS is large enough to noticeably affect the DC solution.
        dV(I7.PM0:int_d) = 87.975 uV
        Use the `gmin_check' option to eliminate or expand this report.

    dcs-000_dcs: dc = 288 mV        (96 %), step = 6 mV            (2 %)

Notice from spectre at dc = 294 mV during DC analysis `dcs-000_dcs', during task `MDLControl'.
    GminDC = 1 pS is large enough to noticeably affect the DC solution.
        dV(I7.PM0:int_d) = 103.846 uV
        Use the `gmin_check' option to eliminate or expand this report.

    dcs-000_dcs: dc = 294 mV        (98 %), step = 6 mV            (2 %)

Notice from spectre at dc = 300 mV during DC analysis `dcs-000_dcs', during task `MDLControl'.
    GminDC = 1 pS is large enough to noticeably affect the DC solution.
        Further occurrences of this notice will be suppressed.
        dV(I7.PM0:int_d) = 121.899 uV
        Further occurrences of this notice will be suppressed.
        Use the `gmin_check' option to eliminate or expand this report.
        Further occurrences of this notice will be suppressed.

    dcs-000_dcs: dc = 300 mV       (100 %), step = 6 mV            (2 %)

Maximum value achieved for any signal of each quantity: 
V: V(net7) = 300 mV
I: I(V1:p) = 120.9 pA
DC simulation time: CPU = 14.997 ms, elapsed = 55.042 ms.

Notice from spectre at dc = 300 mV during DC analysis `dcs-000_dcs', during task `MDLControl'.
    The value of parameter 'dc' has been reset to the original value 0.

Total time required for dc analysis `dcs-000_dcs': CPU = 14.997 ms, elapsed = 55.0799 ms.
Time accumulated: CPU = 5.18121 s, elapsed = 5.99645 s.
Peak resident memory used = 226 Mbytes.


Warning from spectre.
    WARNING (SPECTRE-17101): The value 'psf' specified for the 'checklimitdest' option will no longer be supported in future releases. Use 'spectre -h' to see other recommended values for the 'checklimitdest' option.
    WARNING (SPECTRE-17101): The value 'psf' specified for the 'checklimitdest' option will no longer be supported in future releases. Use 'spectre -h' to see other recommended values for the 'checklimitdest' option.


***********************************************************
Transient Analysis `trans-000_trans': time = (0 s -> 20 us)
***********************************************************
DC simulation time: CPU = 0 s, elapsed = 573.874 us.

Opening the PSFXL file ./input.raw/trans-000_trans.tran.tran ...
Important parameter values:
    start = 0 s
    outputstart = 0 s
    stop = 20 us
    step = 20 ns
    maxstep = 400 ns
    ic = all
    useprevic = no
    skipdc = no
    reltol = 1e-03
    abstol(V) = 1 uV
    abstol(I) = 1 pA
    temp = 27 C
    tnom = 27 C
    tempeffects = all
    errpreset = moderate
    method = traponly
    lteratio = 3.5
    relref = sigglobal
    cmin = 0 F
    gmin = 1 pS


Output and IC/nodeset summary:
                 save   3       (current)
                 save   19      (voltage)
                 others 8       


Notice from spectre at time = 1.18126 ns during transient analysis `trans-000_trans', during task `MDLControl'.
    Found trapezoidal ringing on node I7.PM2:int_g.
Notice from spectre at time = 1.18329 ns during transient analysis `trans-000_trans', during task `MDLControl'.
    Found trapezoidal ringing on node I7.PM2:int_g.
Notice from spectre at time = 1.22325 ns during transient analysis `trans-000_trans', during task `MDLControl'.
    Found trapezoidal ringing on node I7.PM2:int_g.
Notice from spectre at time = 1.30319 ns during transient analysis `trans-000_trans', during task `MDLControl'.
    Found trapezoidal ringing on node I7.PM2:int_g.

......9.

Notice from spectre at time = 2.73717 us during transient analysis `trans-000_trans', during task `MDLControl'.
    Found trapezoidal ringing on node V0:p.
        Further occurrences of this notice will be suppressed.

......9......8......7......6......5
`AutoStop = yes'. Analysis finished at 10 us.

Number of accepted tran steps =             119

Notice from spectre during transient analysis `trans-000_trans', during task `MDLControl'.
    Trapezoidal ringing is detected during tran analysis.
        Please use method=trap for better results and performance.


Maximum value achieved for any signal of each quantity: 
V: V(I7.PM0:int_d) = 348.4 mV
I: I(V0:p) = 14.75 uA
If your circuit contains signals of the same quantity that are vastly different in size (such as high voltage circuitry combined with low voltage control circuitry), you should consider specifying global option `bin_relref=yes'.

~~~~~~~~~~~~~~~~~~~~~~~~~~~~~~~~~
Post-Transient Simulation Summary
~~~~~~~~~~~~~~~~~~~~~~~~~~~~~~~~~
   -   To further speed up simulation, consider
          add ++aps on command line
~~~~~~~~~~~~~~~~~~~~~~~~~~~~~~~~~


During simulation, the CPU load for active processors is :
         0 (7.7 %)       1 (3.8 %)       2 (1.5 %)       3 (77.5 %)
        Total: 90.5%
Initial condition solution time: CPU = 0 s, elapsed = 615.835 us.
Intrinsic tran analysis time:    CPU = 20.997 ms, elapsed = 45.217 ms.
Total time required for tran analysis `trans-000_trans': CPU = 23.997 ms, elapsed = 50.1521 ms.
Time accumulated: CPU = 5.2402 s, elapsed = 6.08186 s.
Peak resident memory used = 226 Mbytes.


Notice from spectre during task `MDLControl'.
    33 notices suppressed.


**************************************************
DC Analysis `dcs-000_dcs': V0:dc = (0 V -> 300 mV)
**************************************************

Opening the PSF file ./input.raw/dcs-000_dcs.dc ...
Important parameter values:
    reltol = 1e-03
    abstol(V) = 1 uV
    abstol(I) = 1 pA
    temp = 27 C
    tnom = 27 C
    tempeffects = all
    gmindc = 1 pS
    dcs-000_dcs: dc = 12 mV          (4 %), step = 6 mV            (2 %)
    dcs-000_dcs: dc = 18 mV          (6 %), step = 6 mV            (2 %)
    dcs-000_dcs: dc = 24 mV          (8 %), step = 6 mV            (2 %)
    dcs-000_dcs: dc = 30 mV         (10 %), step = 6 mV            (2 %)
    dcs-000_dcs: dc = 36 mV         (12 %), step = 6 mV            (2 %)
    dcs-000_dcs: dc = 42 mV         (14 %), step = 6 mV            (2 %)
    dcs-000_dcs: dc = 48 mV         (16 %), step = 6 mV            (2 %)
    dcs-000_dcs: dc = 54 mV         (18 %), step = 6 mV            (2 %)
    dcs-000_dcs: dc = 60 mV         (20 %), step = 6 mV            (2 %)
    dcs-000_dcs: dc = 66 mV         (22 %), step = 6 mV            (2 %)
    dcs-000_dcs: dc = 72 mV         (24 %), step = 6 mV            (2 %)
    dcs-000_dcs: dc = 78 mV         (26 %), step = 6 mV            (2 %)
    dcs-000_dcs: dc = 84 mV         (28 %), step = 6 mV            (2 %)
    dcs-000_dcs: dc = 90 mV         (30 %), step = 6 mV            (2 %)
    dcs-000_dcs: dc = 96 mV         (32 %), step = 6 mV            (2 %)
    dcs-000_dcs: dc = 102 mV        (34 %), step = 6 mV            (2 %)
    dcs-000_dcs: dc = 108 mV        (36 %), step = 6 mV            (2 %)
    dcs-000_dcs: dc = 114 mV        (38 %), step = 6 mV            (2 %)
    dcs-000_dcs: dc = 120 mV        (40 %), step = 6 mV            (2 %)
    dcs-000_dcs: dc = 126 mV        (42 %), step = 6 mV            (2 %)
    dcs-000_dcs: dc = 132 mV        (44 %), step = 6 mV            (2 %)
    dcs-000_dcs: dc = 138 mV        (46 %), step = 6 mV            (2 %)
    dcs-000_dcs: dc = 144 mV        (48 %), step = 6 mV            (2 %)
    dcs-000_dcs: dc = 150 mV        (50 %), step = 6 mV            (2 %)
    dcs-000_dcs: dc = 156 mV        (52 %), step = 6 mV            (2 %)
    dcs-000_dcs: dc = 162 mV        (54 %), step = 6 mV            (2 %)
    dcs-000_dcs: dc = 168 mV        (56 %), step = 6 mV            (2 %)
    dcs-000_dcs: dc = 174 mV        (58 %), step = 6 mV            (2 %)
    dcs-000_dcs: dc = 180 mV        (60 %), step = 6 mV            (2 %)
    dcs-000_dcs: dc = 186 mV        (62 %), step = 6 mV            (2 %)
    dcs-000_dcs: dc = 192 mV        (64 %), step = 6 mV            (2 %)
    dcs-000_dcs: dc = 198 mV        (66 %), step = 6 mV            (2 %)
    dcs-000_dcs: dc = 204 mV        (68 %), step = 6 mV            (2 %)
    dcs-000_dcs: dc = 210 mV        (70 %), step = 6 mV            (2 %)
    dcs-000_dcs: dc = 216 mV        (72 %), step = 6 mV            (2 %)
    dcs-000_dcs: dc = 222 mV        (74 %), step = 6 mV            (2 %)
    dcs-000_dcs: dc = 228 mV        (76 %), step = 6 mV            (2 %)
    dcs-000_dcs: dc = 234 mV        (78 %), step = 6 mV            (2 %)
    dcs-000_dcs: dc = 240 mV        (80 %), step = 6 mV            (2 %)
    dcs-000_dcs: dc = 246 mV        (82 %), step = 6 mV            (2 %)
    dcs-000_dcs: dc = 252 mV        (84 %), step = 6 mV            (2 %)
    dcs-000_dcs: dc = 258 mV        (86 %), step = 6 mV            (2 %)
    dcs-000_dcs: dc = 264 mV        (88 %), step = 6 mV            (2 %)
    dcs-000_dcs: dc = 270 mV        (90 %), step = 6 mV            (2 %)

Notice from spectre at dc = 276 mV during DC analysis `dcs-000_dcs', during task `MDLControl'.
    GminDC = 1 pS is large enough to noticeably affect the DC solution.
        dV(I7.PM0:int_d) = 62.1648 uV
        Use the `gmin_check' option to eliminate or expand this report.

    dcs-000_dcs: dc = 276 mV        (92 %), step = 6 mV            (2 %)

Notice from spectre at dc = 282 mV during DC analysis `dcs-000_dcs', during task `MDLControl'.
    GminDC = 1 pS is large enough to noticeably affect the DC solution.
        dV(I7.PM0:int_d) = 74.1363 uV
        Use the `gmin_check' option to eliminate or expand this report.

    dcs-000_dcs: dc = 282 mV        (94 %), step = 6 mV            (2 %)

Notice from spectre at dc = 288 mV during DC analysis `dcs-000_dcs', during task `MDLControl'.
    GminDC = 1 pS is large enough to noticeably affect the DC solution.
        dV(I7.PM0:int_d) = 87.975 uV
        Use the `gmin_check' option to eliminate or expand this report.

    dcs-000_dcs: dc = 288 mV        (96 %), step = 6 mV            (2 %)

Notice from spectre at dc = 294 mV during DC analysis `dcs-000_dcs', during task `MDLControl'.
    GminDC = 1 pS is large enough to noticeably affect the DC solution.
        dV(I7.PM0:int_d) = 103.846 uV
        Use the `gmin_check' option to eliminate or expand this report.

    dcs-000_dcs: dc = 294 mV        (98 %), step = 6 mV            (2 %)

Notice from spectre at dc = 300 mV during DC analysis `dcs-000_dcs', during task `MDLControl'.
    GminDC = 1 pS is large enough to noticeably affect the DC solution.
        Further occurrences of this notice will be suppressed.
        dV(I7.PM0:int_d) = 121.899 uV
        Further occurrences of this notice will be suppressed.
        Use the `gmin_check' option to eliminate or expand this report.
        Further occurrences of this notice will be suppressed.

    dcs-000_dcs: dc = 300 mV       (100 %), step = 6 mV            (2 %)

Maximum value achieved for any signal of each quantity: 
V: V(net7) = 300 mV
I: I(V1:p) = 120.9 pA
DC simulation time: CPU = 17.998 ms, elapsed = 60.359 ms.

Notice from spectre at dc = 300 mV during DC analysis `dcs-000_dcs', during task `MDLControl'.
    The value of parameter 'dc' has been reset to the original value 0.

Total time required for dc analysis `dcs-000_dcs': CPU = 17.998 ms, elapsed = 60.3969 ms.
Time accumulated: CPU = 5.2592 s, elapsed = 6.14283 s.
Peak resident memory used = 226 Mbytes.


Warning from spectre.
    WARNING (SPECTRE-17101): The value 'psf' specified for the 'checklimitdest' option will no longer be supported in future releases. Use 'spectre -h' to see other recommended values for the 'checklimitdest' option.
    WARNING (SPECTRE-17101): The value 'psf' specified for the 'checklimitdest' option will no longer be supported in future releases. Use 'spectre -h' to see other recommended values for the 'checklimitdest' option.


***********************************************************
Transient Analysis `trans-000_trans': time = (0 s -> 20 us)
***********************************************************
DC simulation time: CPU = 0 s, elapsed = 388.145 us.

Opening the PSFXL file ./input.raw/trans-000_trans.tran.tran ...
Important parameter values:
    start = 0 s
    outputstart = 0 s
    stop = 20 us
    step = 20 ns
    maxstep = 400 ns
    ic = all
    useprevic = no
    skipdc = no
    reltol = 1e-03
    abstol(V) = 1 uV
    abstol(I) = 1 pA
    temp = 27 C
    tnom = 27 C
    tempeffects = all
    errpreset = moderate
    method = traponly
    lteratio = 3.5
    relref = sigglobal
    cmin = 0 F
    gmin = 1 pS


Output and IC/nodeset summary:
                 save   3       (current)
                 save   19      (voltage)
                 others 8       


Notice from spectre at time = 1.17992 ns during transient analysis `trans-000_trans', during task `MDLControl'.
    Found trapezoidal ringing on node I7.PM2:int_g.
Notice from spectre at time = 1.18194 ns during transient analysis `trans-000_trans', during task `MDLControl'.
    Found trapezoidal ringing on node I7.PM2:int_g.
Notice from spectre at time = 1.22185 ns during transient analysis `trans-000_trans', during task `MDLControl'.
    Found trapezoidal ringing on node I7.PM2:int_g.
Notice from spectre at time = 1.30167 ns during transient analysis `trans-000_trans', during task `MDLControl'.
    Found trapezoidal ringing on node I7.PM2:int_g.

......9.

Notice from spectre at time = 2.73604 us during transient analysis `trans-000_trans', during task `MDLControl'.
    Found trapezoidal ringing on node V0:p.
        Further occurrences of this notice will be suppressed.

......9......8......7......6......5
`AutoStop = yes'. Analysis finished at 10 us.

Number of accepted tran steps =             119

Notice from spectre during transient analysis `trans-000_trans', during task `MDLControl'.
    Trapezoidal ringing is detected during tran analysis.
        Please use method=trap for better results and performance.


Maximum value achieved for any signal of each quantity: 
V: V(I7.PM0:int_d) = 348.5 mV
I: I(V0:p) = 14.75 uA
If your circuit contains signals of the same quantity that are vastly different in size (such as high voltage circuitry combined with low voltage control circuitry), you should consider specifying global option `bin_relref=yes'.

~~~~~~~~~~~~~~~~~~~~~~~~~~~~~~~~~
Post-Transient Simulation Summary
~~~~~~~~~~~~~~~~~~~~~~~~~~~~~~~~~
   -   To further speed up simulation, consider
          add ++aps on command line
~~~~~~~~~~~~~~~~~~~~~~~~~~~~~~~~~


During simulation, the CPU load for active processors is :
         0 (9.3 %)       1 (3.9 %)       2 (1.6 %)       3 (75.6 %)
        Total: 90.4%
Initial condition solution time: CPU = 0 s, elapsed = 428.915 us.
Intrinsic tran analysis time:    CPU = 25.996 ms, elapsed = 56.74 ms.
Total time required for tran analysis `trans-000_trans': CPU = 27.996 ms, elapsed = 59.2332 ms.
Time accumulated: CPU = 5.32119 s, elapsed = 6.2376 s.
Peak resident memory used = 226 Mbytes.


Notice from spectre during task `MDLControl'.
    33 notices suppressed.


**************************************************
DC Analysis `dcs-000_dcs': V0:dc = (0 V -> 300 mV)
**************************************************

Opening the PSF file ./input.raw/dcs-000_dcs.dc ...
Important parameter values:
    reltol = 1e-03
    abstol(V) = 1 uV
    abstol(I) = 1 pA
    temp = 27 C
    tnom = 27 C
    tempeffects = all
    gmindc = 1 pS
    dcs-000_dcs: dc = 12 mV          (4 %), step = 6 mV            (2 %)
    dcs-000_dcs: dc = 18 mV          (6 %), step = 6 mV            (2 %)
    dcs-000_dcs: dc = 24 mV          (8 %), step = 6 mV            (2 %)
    dcs-000_dcs: dc = 30 mV         (10 %), step = 6 mV            (2 %)
    dcs-000_dcs: dc = 36 mV         (12 %), step = 6 mV            (2 %)
    dcs-000_dcs: dc = 42 mV         (14 %), step = 6 mV            (2 %)
    dcs-000_dcs: dc = 48 mV         (16 %), step = 6 mV            (2 %)
    dcs-000_dcs: dc = 54 mV         (18 %), step = 6 mV            (2 %)
    dcs-000_dcs: dc = 60 mV         (20 %), step = 6 mV            (2 %)
    dcs-000_dcs: dc = 66 mV         (22 %), step = 6 mV            (2 %)
    dcs-000_dcs: dc = 72 mV         (24 %), step = 6 mV            (2 %)
    dcs-000_dcs: dc = 78 mV         (26 %), step = 6 mV            (2 %)
    dcs-000_dcs: dc = 84 mV         (28 %), step = 6 mV            (2 %)
    dcs-000_dcs: dc = 90 mV         (30 %), step = 6 mV            (2 %)
    dcs-000_dcs: dc = 96 mV         (32 %), step = 6 mV            (2 %)
    dcs-000_dcs: dc = 102 mV        (34 %), step = 6 mV            (2 %)
    dcs-000_dcs: dc = 108 mV        (36 %), step = 6 mV            (2 %)
    dcs-000_dcs: dc = 114 mV        (38 %), step = 6 mV            (2 %)
    dcs-000_dcs: dc = 120 mV        (40 %), step = 6 mV            (2 %)
    dcs-000_dcs: dc = 126 mV        (42 %), step = 6 mV            (2 %)
    dcs-000_dcs: dc = 132 mV        (44 %), step = 6 mV            (2 %)
    dcs-000_dcs: dc = 138 mV        (46 %), step = 6 mV            (2 %)
    dcs-000_dcs: dc = 144 mV        (48 %), step = 6 mV            (2 %)
    dcs-000_dcs: dc = 150 mV        (50 %), step = 6 mV            (2 %)
    dcs-000_dcs: dc = 156 mV        (52 %), step = 6 mV            (2 %)
    dcs-000_dcs: dc = 162 mV        (54 %), step = 6 mV            (2 %)
    dcs-000_dcs: dc = 168 mV        (56 %), step = 6 mV            (2 %)
    dcs-000_dcs: dc = 174 mV        (58 %), step = 6 mV            (2 %)
    dcs-000_dcs: dc = 180 mV        (60 %), step = 6 mV            (2 %)
    dcs-000_dcs: dc = 186 mV        (62 %), step = 6 mV            (2 %)
    dcs-000_dcs: dc = 192 mV        (64 %), step = 6 mV            (2 %)
    dcs-000_dcs: dc = 198 mV        (66 %), step = 6 mV            (2 %)
    dcs-000_dcs: dc = 204 mV        (68 %), step = 6 mV            (2 %)
    dcs-000_dcs: dc = 210 mV        (70 %), step = 6 mV            (2 %)
    dcs-000_dcs: dc = 216 mV        (72 %), step = 6 mV            (2 %)
    dcs-000_dcs: dc = 222 mV        (74 %), step = 6 mV            (2 %)
    dcs-000_dcs: dc = 228 mV        (76 %), step = 6 mV            (2 %)
    dcs-000_dcs: dc = 234 mV        (78 %), step = 6 mV            (2 %)
    dcs-000_dcs: dc = 240 mV        (80 %), step = 6 mV            (2 %)
    dcs-000_dcs: dc = 246 mV        (82 %), step = 6 mV            (2 %)
    dcs-000_dcs: dc = 252 mV        (84 %), step = 6 mV            (2 %)
    dcs-000_dcs: dc = 258 mV        (86 %), step = 6 mV            (2 %)
    dcs-000_dcs: dc = 264 mV        (88 %), step = 6 mV            (2 %)
    dcs-000_dcs: dc = 270 mV        (90 %), step = 6 mV            (2 %)

Notice from spectre at dc = 276 mV during DC analysis `dcs-000_dcs', during task `MDLControl'.
    GminDC = 1 pS is large enough to noticeably affect the DC solution.
        dV(I7.PM0:int_d) = 62.4499 uV
        Use the `gmin_check' option to eliminate or expand this report.

    dcs-000_dcs: dc = 276 mV        (92 %), step = 6 mV            (2 %)

Notice from spectre at dc = 282 mV during DC analysis `dcs-000_dcs', during task `MDLControl'.
    GminDC = 1 pS is large enough to noticeably affect the DC solution.
        dV(I7.PM0:int_d) = 74.479 uV
        Use the `gmin_check' option to eliminate or expand this report.

    dcs-000_dcs: dc = 282 mV        (94 %), step = 6 mV            (2 %)

Notice from spectre at dc = 288 mV during DC analysis `dcs-000_dcs', during task `MDLControl'.
    GminDC = 1 pS is large enough to noticeably affect the DC solution.
        dV(I7.PM0:int_d) = 88.3844 uV
        Use the `gmin_check' option to eliminate or expand this report.

    dcs-000_dcs: dc = 288 mV        (96 %), step = 6 mV            (2 %)

Notice from spectre at dc = 294 mV during DC analysis `dcs-000_dcs', during task `MDLControl'.
    GminDC = 1 pS is large enough to noticeably affect the DC solution.
        dV(I7.PM0:int_d) = 104.332 uV
        Use the `gmin_check' option to eliminate or expand this report.

    dcs-000_dcs: dc = 294 mV        (98 %), step = 6 mV            (2 %)

Notice from spectre at dc = 300 mV during DC analysis `dcs-000_dcs', during task `MDLControl'.
    GminDC = 1 pS is large enough to noticeably affect the DC solution.
        Further occurrences of this notice will be suppressed.
        dV(I7.PM0:int_d) = 122.473 uV
        Further occurrences of this notice will be suppressed.
        Use the `gmin_check' option to eliminate or expand this report.
        Further occurrences of this notice will be suppressed.

    dcs-000_dcs: dc = 300 mV       (100 %), step = 6 mV            (2 %)

Maximum value achieved for any signal of each quantity: 
V: V(net7) = 300 mV
I: I(V1:p) = 120.3 pA
DC simulation time: CPU = 22.997 ms, elapsed = 51.585 ms.

Notice from spectre at dc = 300 mV during DC analysis `dcs-000_dcs', during task `MDLControl'.
    The value of parameter 'dc' has been reset to the original value 0.

Total time required for dc analysis `dcs-000_dcs': CPU = 22.997 ms, elapsed = 51.6572 ms.
Time accumulated: CPU = 5.34519 s, elapsed = 6.2901 s.
Peak resident memory used = 226 Mbytes.


Warning from spectre.
    WARNING (SPECTRE-17101): The value 'psf' specified for the 'checklimitdest' option will no longer be supported in future releases. Use 'spectre -h' to see other recommended values for the 'checklimitdest' option.
    WARNING (SPECTRE-17101): The value 'psf' specified for the 'checklimitdest' option will no longer be supported in future releases. Use 'spectre -h' to see other recommended values for the 'checklimitdest' option.
    WARNING (SPECTRE-17101): The value 'psf' specified for the 'checklimitdest' option will no longer be supported in future releases. Use 'spectre -h' to see other recommended values for the 'checklimitdest' option.
    WARNING (SPECTRE-17101): The value 'psf' specified for the 'checklimitdest' option will no longer be supported in future releases. Use 'spectre -h' to see other recommended values for the 'checklimitdest' option.


***********************************************************
Transient Analysis `trans-000_trans': time = (0 s -> 20 us)
***********************************************************
DC simulation time: CPU = 999 us, elapsed = 427.961 us.

Opening the PSFXL file ./input.raw/trans-000_trans.tran.tran ...
Important parameter values:
    start = 0 s
    outputstart = 0 s
    stop = 20 us
    step = 20 ns
    maxstep = 400 ns
    ic = all
    useprevic = no
    skipdc = no
    reltol = 1e-03
    abstol(V) = 1 uV
    abstol(I) = 1 pA
    temp = 27 C
    tnom = 27 C
    tempeffects = all
    errpreset = moderate
    method = traponly
    lteratio = 3.5
    relref = sigglobal
    cmin = 0 F
    gmin = 1 pS


Output and IC/nodeset summary:
                 save   3       (current)
                 save   19      (voltage)
                 others 8       

......9......8...

Notice from spectre at time = 5 us during transient analysis `trans-000_trans', during task `MDLControl'.
    Found trapezoidal ringing on node V0:p.

......9......8......7......6......5
`AutoStop = yes'. Analysis finished at 10 us.

Number of accepted tran steps =             113

Notice from spectre during transient analysis `trans-000_trans', during task `MDLControl'.
    Trapezoidal ringing is detected during tran analysis.
        Please use method=trap for better results and performance.


Maximum value achieved for any signal of each quantity: 
V: V(I7.PM0:int_d) = 356.7 mV
I: I(V0:p) = 20.37 uA
If your circuit contains signals of the same quantity that are vastly different in size (such as high voltage circuitry combined with low voltage control circuitry), you should consider specifying global option `bin_relref=yes'.

~~~~~~~~~~~~~~~~~~~~~~~~~~~~~~~~~
Post-Transient Simulation Summary
~~~~~~~~~~~~~~~~~~~~~~~~~~~~~~~~~
   -   To further speed up simulation, consider
          add ++aps on command line
~~~~~~~~~~~~~~~~~~~~~~~~~~~~~~~~~


During simulation, the CPU load for active processors is :
         0 (9.8 %)       1 (4.3 %)       2 (1.7 %)       3 (74.6 %)
        Total: 90.5%
Initial condition solution time: CPU = 999 us, elapsed = 470.161 us.
Intrinsic tran analysis time:    CPU = 22.997 ms, elapsed = 53.3531 ms.
Total time required for tran analysis `trans-000_trans': CPU = 24.996 ms, elapsed = 55.831 ms.
Time accumulated: CPU = 5.44117 s, elapsed = 6.41765 s.
Peak resident memory used = 226 Mbytes.


**************************************************
DC Analysis `dcs-000_dcs': V0:dc = (0 V -> 300 mV)
**************************************************

Opening the PSF file ./input.raw/dcs-000_dcs.dc ...
Important parameter values:
    reltol = 1e-03
    abstol(V) = 1 uV
    abstol(I) = 1 pA
    temp = 27 C
    tnom = 27 C
    tempeffects = all
    gmindc = 1 pS
    dcs-000_dcs: dc = 12 mV          (4 %), step = 6 mV            (2 %)
    dcs-000_dcs: dc = 18 mV          (6 %), step = 6 mV            (2 %)
    dcs-000_dcs: dc = 24 mV          (8 %), step = 6 mV            (2 %)
    dcs-000_dcs: dc = 30 mV         (10 %), step = 6 mV            (2 %)
    dcs-000_dcs: dc = 36 mV         (12 %), step = 6 mV            (2 %)
    dcs-000_dcs: dc = 42 mV         (14 %), step = 6 mV            (2 %)
    dcs-000_dcs: dc = 48 mV         (16 %), step = 6 mV            (2 %)
    dcs-000_dcs: dc = 54 mV         (18 %), step = 6 mV            (2 %)
    dcs-000_dcs: dc = 60 mV         (20 %), step = 6 mV            (2 %)
    dcs-000_dcs: dc = 66 mV         (22 %), step = 6 mV            (2 %)
    dcs-000_dcs: dc = 72 mV         (24 %), step = 6 mV            (2 %)
    dcs-000_dcs: dc = 78 mV         (26 %), step = 6 mV            (2 %)
    dcs-000_dcs: dc = 84 mV         (28 %), step = 6 mV            (2 %)
    dcs-000_dcs: dc = 90 mV         (30 %), step = 6 mV            (2 %)
    dcs-000_dcs: dc = 96 mV         (32 %), step = 6 mV            (2 %)
    dcs-000_dcs: dc = 102 mV        (34 %), step = 6 mV            (2 %)
    dcs-000_dcs: dc = 108 mV        (36 %), step = 6 mV            (2 %)
    dcs-000_dcs: dc = 114 mV        (38 %), step = 6 mV            (2 %)
    dcs-000_dcs: dc = 120 mV        (40 %), step = 6 mV            (2 %)
    dcs-000_dcs: dc = 126 mV        (42 %), step = 6 mV            (2 %)
    dcs-000_dcs: dc = 132 mV        (44 %), step = 6 mV            (2 %)
    dcs-000_dcs: dc = 138 mV        (46 %), step = 6 mV            (2 %)
    dcs-000_dcs: dc = 144 mV        (48 %), step = 6 mV            (2 %)
    dcs-000_dcs: dc = 150 mV        (50 %), step = 6 mV            (2 %)
    dcs-000_dcs: dc = 156 mV        (52 %), step = 6 mV            (2 %)
    dcs-000_dcs: dc = 162 mV        (54 %), step = 6 mV            (2 %)
    dcs-000_dcs: dc = 168 mV        (56 %), step = 6 mV            (2 %)
    dcs-000_dcs: dc = 174 mV        (58 %), step = 6 mV            (2 %)
    dcs-000_dcs: dc = 180 mV        (60 %), step = 6 mV            (2 %)
    dcs-000_dcs: dc = 186 mV        (62 %), step = 6 mV            (2 %)
    dcs-000_dcs: dc = 192 mV        (64 %), step = 6 mV            (2 %)
    dcs-000_dcs: dc = 198 mV        (66 %), step = 6 mV            (2 %)
    dcs-000_dcs: dc = 204 mV        (68 %), step = 6 mV            (2 %)
    dcs-000_dcs: dc = 210 mV        (70 %), step = 6 mV            (2 %)
    dcs-000_dcs: dc = 216 mV        (72 %), step = 6 mV            (2 %)
    dcs-000_dcs: dc = 222 mV        (74 %), step = 6 mV            (2 %)
    dcs-000_dcs: dc = 228 mV        (76 %), step = 6 mV            (2 %)
    dcs-000_dcs: dc = 234 mV        (78 %), step = 6 mV            (2 %)
    dcs-000_dcs: dc = 240 mV        (80 %), step = 6 mV            (2 %)

Notice from spectre at dc = 246 mV during DC analysis `dcs-000_dcs', during task `MDLControl'.
    GminDC = 1 pS is large enough to noticeably affect the DC solution.
        dV(I7.PM0:int_d) = 91.2453 uV
        Use the `gmin_check' option to eliminate or expand this report.

    dcs-000_dcs: dc = 246 mV        (82 %), step = 6 mV            (2 %)

Notice from spectre at dc = 252 mV during DC analysis `dcs-000_dcs', during task `MDLControl'.
    GminDC = 1 pS is large enough to noticeably affect the DC solution.
        dV(I7.PM0:int_d) = 112.773 uV
        Use the `gmin_check' option to eliminate or expand this report.

    dcs-000_dcs: dc = 252 mV        (84 %), step = 6 mV            (2 %)

Notice from spectre at dc = 258 mV during DC analysis `dcs-000_dcs', during task `MDLControl'.
    GminDC = 1 pS is large enough to noticeably affect the DC solution.
        dV(I7.PM0:int_d) = 138.777 uV
        Use the `gmin_check' option to eliminate or expand this report.

    dcs-000_dcs: dc = 258 mV        (86 %), step = 6 mV            (2 %)

Notice from spectre at dc = 264 mV during DC analysis `dcs-000_dcs', during task `MDLControl'.
    GminDC = 1 pS is large enough to noticeably affect the DC solution.
        dV(I7.PM0:int_d) = 169.952 uV
        Use the `gmin_check' option to eliminate or expand this report.

    dcs-000_dcs: dc = 264 mV        (88 %), step = 6 mV            (2 %)

Notice from spectre at dc = 270 mV during DC analysis `dcs-000_dcs', during task `MDLControl'.
    GminDC = 1 pS is large enough to noticeably affect the DC solution.
        Further occurrences of this notice will be suppressed.
        dV(I7.PM0:int_d) = 207.013 uV
        Further occurrences of this notice will be suppressed.
        Use the `gmin_check' option to eliminate or expand this report.
        Further occurrences of this notice will be suppressed.

    dcs-000_dcs: dc = 270 mV        (90 %), step = 6 mV            (2 %)
    dcs-000_dcs: dc = 276 mV        (92 %), step = 6 mV            (2 %)
    dcs-000_dcs: dc = 282 mV        (94 %), step = 6 mV            (2 %)
    dcs-000_dcs: dc = 288 mV        (96 %), step = 6 mV            (2 %)
    dcs-000_dcs: dc = 294 mV        (98 %), step = 6 mV            (2 %)
    dcs-000_dcs: dc = 300 mV       (100 %), step = 6 mV            (2 %)

Maximum value achieved for any signal of each quantity: 
V: V(net7) = 300 mV
I: I(V1:p) = 29.72 pA
DC simulation time: CPU = 20.997 ms, elapsed = 53.4749 ms.

Notice from spectre at dc = 300 mV during DC analysis `dcs-000_dcs', during task `MDLControl'.
    The value of parameter 'dc' has been reset to the original value 0.

Total time required for dc analysis `dcs-000_dcs': CPU = 20.997 ms, elapsed = 53.5429 ms.
Time accumulated: CPU = 5.46317 s, elapsed = 6.47184 s.
Peak resident memory used = 226 Mbytes.


Notice from spectre during task `MDLControl'.
    5 notices suppressed.
Warning from spectre.
    WARNING (SPECTRE-17101): The value 'psf' specified for the 'checklimitdest' option will no longer be supported in future releases. Use 'spectre -h' to see other recommended values for the 'checklimitdest' option.
    WARNING (SPECTRE-17101): The value 'psf' specified for the 'checklimitdest' option will no longer be supported in future releases. Use 'spectre -h' to see other recommended values for the 'checklimitdest' option.
    WARNING (SPECTRE-17101): The value 'psf' specified for the 'checklimitdest' option will no longer be supported in future releases. Use 'spectre -h' to see other recommended values for the 'checklimitdest' option.
    WARNING (SPECTRE-17101): The value 'psf' specified for the 'checklimitdest' option will no longer be supported in future releases. Use 'spectre -h' to see other recommended values for the 'checklimitdest' option.


***********************************************************
Transient Analysis `trans-000_trans': time = (0 s -> 20 us)
***********************************************************
DC simulation time: CPU = 1 ms, elapsed = 505.924 us.

Opening the PSFXL file ./input.raw/trans-000_trans.tran.tran ...
Important parameter values:
    start = 0 s
    outputstart = 0 s
    stop = 20 us
    step = 20 ns
    maxstep = 400 ns
    ic = all
    useprevic = no
    skipdc = no
    reltol = 1e-03
    abstol(V) = 1 uV
    abstol(I) = 1 pA
    temp = 27 C
    tnom = 27 C
    tempeffects = all
    errpreset = moderate
    method = traponly
    lteratio = 3.5
    relref = sigglobal
    cmin = 0 F
    gmin = 1 pS


Output and IC/nodeset summary:
                 save   3       (current)
                 save   19      (voltage)
                 others 8       

......9.

Notice from spectre at time = 2.71306 us during transient analysis `trans-000_trans', during task `MDLControl'.
    Found trapezoidal ringing on node V0:p.

......9..

Notice from spectre at time = 3.11306 us during transient analysis `trans-000_trans', during task `MDLControl'.
    Found trapezoidal ringing on node V0:p.

......9....

Notice from spectre at time = 3.51306 us during transient analysis `trans-000_trans', during task `MDLControl'.
    Found trapezoidal ringing on node V0:p.

......9.....

Notice from spectre at time = 3.91306 us during transient analysis `trans-000_trans', during task `MDLControl'.
    Found trapezoidal ringing on node V0:p.

......9......8

Notice from spectre at time = 4.31306 us during transient analysis `trans-000_trans', during task `MDLControl'.
    Found trapezoidal ringing on node V0:p.
        Further occurrences of this notice will be suppressed.

......9......8......7......6......5
`AutoStop = yes'. Analysis finished at 10 us.

Number of accepted tran steps =             119

Notice from spectre during transient analysis `trans-000_trans', during task `MDLControl'.
    Trapezoidal ringing is detected during tran analysis.
        Please use method=trap for better results and performance.


Maximum value achieved for any signal of each quantity: 
V: V(I7.PM0:int_d) = 347.2 mV
I: I(V0:p) = 14.41 uA
If your circuit contains signals of the same quantity that are vastly different in size (such as high voltage circuitry combined with low voltage control circuitry), you should consider specifying global option `bin_relref=yes'.

~~~~~~~~~~~~~~~~~~~~~~~~~~~~~~~~~
Post-Transient Simulation Summary
~~~~~~~~~~~~~~~~~~~~~~~~~~~~~~~~~
   -   To further speed up simulation, consider
          add ++aps on command line
~~~~~~~~~~~~~~~~~~~~~~~~~~~~~~~~~


During simulation, the CPU load for active processors is :
         0 (11.6 %)      1 (4.3 %)       2 (2.0 %)       3 (72.7 %)
        Total: 90.6%
Initial condition solution time: CPU = 1 ms, elapsed = 546.932 us.
Intrinsic tran analysis time:    CPU = 18.997 ms, elapsed = 45.471 ms.
Total time required for tran analysis `trans-000_trans': CPU = 21.996 ms, elapsed = 48.0931 ms.
Time accumulated: CPU = 5.55215 s, elapsed = 6.58974 s.
Peak resident memory used = 226 Mbytes.


Notice from spectre during task `MDLControl'.
    27 notices suppressed.


**************************************************
DC Analysis `dcs-000_dcs': V0:dc = (0 V -> 300 mV)
**************************************************

Opening the PSF file ./input.raw/dcs-000_dcs.dc ...
Important parameter values:
    reltol = 1e-03
    abstol(V) = 1 uV
    abstol(I) = 1 pA
    temp = 27 C
    tnom = 27 C
    tempeffects = all
    gmindc = 1 pS
    dcs-000_dcs: dc = 12 mV          (4 %), step = 6 mV            (2 %)
    dcs-000_dcs: dc = 18 mV          (6 %), step = 6 mV            (2 %)
    dcs-000_dcs: dc = 24 mV          (8 %), step = 6 mV            (2 %)
    dcs-000_dcs: dc = 30 mV         (10 %), step = 6 mV            (2 %)
    dcs-000_dcs: dc = 36 mV         (12 %), step = 6 mV            (2 %)
    dcs-000_dcs: dc = 42 mV         (14 %), step = 6 mV            (2 %)
    dcs-000_dcs: dc = 48 mV         (16 %), step = 6 mV            (2 %)
    dcs-000_dcs: dc = 54 mV         (18 %), step = 6 mV            (2 %)
    dcs-000_dcs: dc = 60 mV         (20 %), step = 6 mV            (2 %)
    dcs-000_dcs: dc = 66 mV         (22 %), step = 6 mV            (2 %)
    dcs-000_dcs: dc = 72 mV         (24 %), step = 6 mV            (2 %)
    dcs-000_dcs: dc = 78 mV         (26 %), step = 6 mV            (2 %)
    dcs-000_dcs: dc = 84 mV         (28 %), step = 6 mV            (2 %)
    dcs-000_dcs: dc = 90 mV         (30 %), step = 6 mV            (2 %)
    dcs-000_dcs: dc = 96 mV         (32 %), step = 6 mV            (2 %)
    dcs-000_dcs: dc = 102 mV        (34 %), step = 6 mV            (2 %)
    dcs-000_dcs: dc = 108 mV        (36 %), step = 6 mV            (2 %)
    dcs-000_dcs: dc = 114 mV        (38 %), step = 6 mV            (2 %)
    dcs-000_dcs: dc = 120 mV        (40 %), step = 6 mV            (2 %)
    dcs-000_dcs: dc = 126 mV        (42 %), step = 6 mV            (2 %)
    dcs-000_dcs: dc = 132 mV        (44 %), step = 6 mV            (2 %)
    dcs-000_dcs: dc = 138 mV        (46 %), step = 6 mV            (2 %)
    dcs-000_dcs: dc = 144 mV        (48 %), step = 6 mV            (2 %)
    dcs-000_dcs: dc = 150 mV        (50 %), step = 6 mV            (2 %)
    dcs-000_dcs: dc = 156 mV        (52 %), step = 6 mV            (2 %)
    dcs-000_dcs: dc = 162 mV        (54 %), step = 6 mV            (2 %)
    dcs-000_dcs: dc = 168 mV        (56 %), step = 6 mV            (2 %)
    dcs-000_dcs: dc = 174 mV        (58 %), step = 6 mV            (2 %)
    dcs-000_dcs: dc = 180 mV        (60 %), step = 6 mV            (2 %)
    dcs-000_dcs: dc = 186 mV        (62 %), step = 6 mV            (2 %)
    dcs-000_dcs: dc = 192 mV        (64 %), step = 6 mV            (2 %)
    dcs-000_dcs: dc = 198 mV        (66 %), step = 6 mV            (2 %)
    dcs-000_dcs: dc = 204 mV        (68 %), step = 6 mV            (2 %)
    dcs-000_dcs: dc = 210 mV        (70 %), step = 6 mV            (2 %)
    dcs-000_dcs: dc = 216 mV        (72 %), step = 6 mV            (2 %)
    dcs-000_dcs: dc = 222 mV        (74 %), step = 6 mV            (2 %)
    dcs-000_dcs: dc = 228 mV        (76 %), step = 6 mV            (2 %)
    dcs-000_dcs: dc = 234 mV        (78 %), step = 6 mV            (2 %)
    dcs-000_dcs: dc = 240 mV        (80 %), step = 6 mV            (2 %)
    dcs-000_dcs: dc = 246 mV        (82 %), step = 6 mV            (2 %)
    dcs-000_dcs: dc = 252 mV        (84 %), step = 6 mV            (2 %)
    dcs-000_dcs: dc = 258 mV        (86 %), step = 6 mV            (2 %)
    dcs-000_dcs: dc = 264 mV        (88 %), step = 6 mV            (2 %)
    dcs-000_dcs: dc = 270 mV        (90 %), step = 6 mV            (2 %)
    dcs-000_dcs: dc = 276 mV        (92 %), step = 6 mV            (2 %)
    dcs-000_dcs: dc = 282 mV        (94 %), step = 6 mV            (2 %)

Notice from spectre at dc = 288 mV during DC analysis `dcs-000_dcs', during task `MDLControl'.
    GminDC = 1 pS is large enough to noticeably affect the DC solution.
        dV(I7.PM0:int_d) = 56.0991 uV
        Use the `gmin_check' option to eliminate or expand this report.

    dcs-000_dcs: dc = 288 mV        (96 %), step = 6 mV            (2 %)

Notice from spectre at dc = 294 mV during DC analysis `dcs-000_dcs', during task `MDLControl'.
    GminDC = 1 pS is large enough to noticeably affect the DC solution.
        dV(I7.PM0:int_d) = 66.0275 uV
        Use the `gmin_check' option to eliminate or expand this report.

    dcs-000_dcs: dc = 294 mV        (98 %), step = 6 mV            (2 %)

Notice from spectre at dc = 300 mV during DC analysis `dcs-000_dcs', during task `MDLControl'.
    GminDC = 1 pS is large enough to noticeably affect the DC solution.
        dV(I7.PM0:int_d) = 77.2877 uV
        Use the `gmin_check' option to eliminate or expand this report.

    dcs-000_dcs: dc = 300 mV       (100 %), step = 6 mV            (2 %)

Maximum value achieved for any signal of each quantity: 
V: V(net7) = 300 mV
I: I(V1:p) = 192 pA
DC simulation time: CPU = 14.998 ms, elapsed = 44.7211 ms.

Notice from spectre at dc = 300 mV during DC analysis `dcs-000_dcs', during task `MDLControl'.
    The value of parameter 'dc' has been reset to the original value 0.

Total time required for dc analysis `dcs-000_dcs': CPU = 14.998 ms, elapsed = 44.7609 ms.
Time accumulated: CPU = 5.56915 s, elapsed = 6.6351 s.
Peak resident memory used = 226 Mbytes.


Warning from spectre.
    WARNING (SPECTRE-17101): The value 'psf' specified for the 'checklimitdest' option will no longer be supported in future releases. Use 'spectre -h' to see other recommended values for the 'checklimitdest' option.


***********************************************************
Transient Analysis `trans-000_trans': time = (0 s -> 20 us)
***********************************************************
DC simulation time: CPU = 0 s, elapsed = 463.963 us.

Opening the PSFXL file ./input.raw/trans-000_trans.tran.tran ...
[...]
    dcs-000_dcs: dc = 72 mV         (24 %), step = 6 mV            (2 %)
    dcs-000_dcs: dc = 78 mV         (26 %), step = 6 mV            (2 %)
    dcs-000_dcs: dc = 84 mV         (28 %), step = 6 mV            (2 %)
    dcs-000_dcs: dc = 90 mV         (30 %), step = 6 mV            (2 %)
    dcs-000_dcs: dc = 96 mV         (32 %), step = 6 mV            (2 %)
    dcs-000_dcs: dc = 102 mV        (34 %), step = 6 mV            (2 %)
    dcs-000_dcs: dc = 108 mV        (36 %), step = 6 mV            (2 %)
    dcs-000_dcs: dc = 114 mV        (38 %), step = 6 mV            (2 %)
    dcs-000_dcs: dc = 120 mV        (40 %), step = 6 mV            (2 %)
    dcs-000_dcs: dc = 126 mV        (42 %), step = 6 mV            (2 %)
    dcs-000_dcs: dc = 132 mV        (44 %), step = 6 mV            (2 %)
    dcs-000_dcs: dc = 138 mV        (46 %), step = 6 mV            (2 %)
    dcs-000_dcs: dc = 144 mV        (48 %), step = 6 mV            (2 %)
    dcs-000_dcs: dc = 150 mV        (50 %), step = 6 mV            (2 %)
    dcs-000_dcs: dc = 156 mV        (52 %), step = 6 mV            (2 %)
    dcs-000_dcs: dc = 162 mV        (54 %), step = 6 mV            (2 %)
    dcs-000_dcs: dc = 168 mV        (56 %), step = 6 mV            (2 %)
    dcs-000_dcs: dc = 174 mV        (58 %), step = 6 mV            (2 %)
    dcs-000_dcs: dc = 180 mV        (60 %), step = 6 mV            (2 %)
    dcs-000_dcs: dc = 186 mV        (62 %), step = 6 mV            (2 %)
    dcs-000_dcs: dc = 192 mV        (64 %), step = 6 mV            (2 %)
    dcs-000_dcs: dc = 198 mV        (66 %), step = 6 mV            (2 %)
    dcs-000_dcs: dc = 204 mV        (68 %), step = 6 mV            (2 %)
    dcs-000_dcs: dc = 210 mV        (70 %), step = 6 mV            (2 %)
    dcs-000_dcs: dc = 216 mV        (72 %), step = 6 mV            (2 %)
    dcs-000_dcs: dc = 222 mV        (74 %), step = 6 mV            (2 %)
    dcs-000_dcs: dc = 228 mV        (76 %), step = 6 mV            (2 %)
    dcs-000_dcs: dc = 234 mV        (78 %), step = 6 mV            (2 %)
    dcs-000_dcs: dc = 240 mV        (80 %), step = 6 mV            (2 %)
    dcs-000_dcs: dc = 246 mV        (82 %), step = 6 mV            (2 %)
    dcs-000_dcs: dc = 252 mV        (84 %), step = 6 mV            (2 %)
    dcs-000_dcs: dc = 258 mV        (86 %), step = 6 mV            (2 %)
    dcs-000_dcs: dc = 264 mV        (88 %), step = 6 mV            (2 %)
    dcs-000_dcs: dc = 270 mV        (90 %), step = 6 mV            (2 %)
    dcs-000_dcs: dc = 276 mV        (92 %), step = 6 mV            (2 %)
    dcs-000_dcs: dc = 282 mV        (94 %), step = 6 mV            (2 %)
    dcs-000_dcs: dc = 288 mV        (96 %), step = 6 mV            (2 %)
    dcs-000_dcs: dc = 294 mV        (98 %), step = 6 mV            (2 %)
    dcs-000_dcs: dc = 300 mV       (100 %), step = 6 mV            (2 %)

Maximum value achieved for any signal of each quantity: 
V: V(net7) = 300 mV
I: I(V1:p) = 914.2 pA
DC simulation time: CPU = 19.996 ms, elapsed = 61.2719 ms.

Notice from spectre at dc = 300 mV during DC analysis `dcs-000_dcs', during task `MDLControl'.
    The value of parameter 'dc' has been reset to the original value 0.

Total time required for dc analysis `dcs-000_dcs': CPU = 19.996 ms, elapsed = 61.311 ms.
Time accumulated: CPU = 11.4323 s, elapsed = 17.3709 s.
Peak resident memory used = 228 Mbytes.


Warning from spectre.
    WARNING (SPECTRE-17101): The value 'psf' specified for the 'checklimitdest' option will no longer be supported in future releases. Use 'spectre -h' to see other recommended values for the 'checklimitdest' option.
    WARNING (SPECTRE-17101): The value 'psf' specified for the 'checklimitdest' option will no longer be supported in future releases. Use 'spectre -h' to see other recommended values for the 'checklimitdest' option.
    WARNING (SPECTRE-17101): The value 'psf' specified for the 'checklimitdest' option will no longer be supported in future releases. Use 'spectre -h' to see other recommended values for the 'checklimitdest' option.
    WARNING (SPECTRE-17101): The value 'psf' specified for the 'checklimitdest' option will no longer be supported in future releases. Use 'spectre -h' to see other recommended values for the 'checklimitdest' option.


***********************************************************
Transient Analysis `trans-000_trans': time = (0 s -> 20 us)
***********************************************************
DC simulation time: CPU = 0 s, elapsed = 450.85 us.

Opening the PSFXL file ./input.raw/trans-000_trans.tran.tran ...
Important parameter values:
    start = 0 s
    outputstart = 0 s
    stop = 20 us
    step = 20 ns
    maxstep = 400 ns
    ic = all
    useprevic = no
    skipdc = no
    reltol = 1e-03
    abstol(V) = 1 uV
    abstol(I) = 1 pA
    temp = 27 C
    tnom = 27 C
    tempeffects = all
    errpreset = moderate
    method = traponly
    lteratio = 3.5
    relref = sigglobal
    cmin = 0 F
    gmin = 1 pS


Output and IC/nodeset summary:
                 save   3       (current)
                 save   19      (voltage)
                 others 8       

......

Notice from spectre at time = 2.12783 us during transient analysis `trans-000_trans', during task `MDLControl'.
    Found trapezoidal ringing on node V0:p.

......9

Notice from spectre at time = 2.52783 us during transient analysis `trans-000_trans', during task `MDLControl'.
    Found trapezoidal ringing on node V0:p.

......9..

Notice from spectre at time = 2.92783 us during transient analysis `trans-000_trans', during task `MDLControl'.
    Found trapezoidal ringing on node V0:p.

......9...

Notice from spectre at time = 3.32783 us during transient analysis `trans-000_trans', during task `MDLControl'.
    Found trapezoidal ringing on node V0:p.

......9.....

Notice from spectre at time = 3.72783 us during transient analysis `trans-000_trans', during task `MDLControl'.
    Found trapezoidal ringing on node V0:p.
        Further occurrences of this notice will be suppressed.

......9......8......7......6......5
`AutoStop = yes'. Analysis finished at 10 us.

Number of accepted tran steps =             120

Notice from spectre during transient analysis `trans-000_trans', during task `MDLControl'.
    Trapezoidal ringing is detected during tran analysis.
        Please use method=trap for better results and performance.


Maximum value achieved for any signal of each quantity: 
V: V(I7.PM0:int_d) = 343 mV
I: I(V0:p) = 18.18 uA
If your circuit contains signals of the same quantity that are vastly different in size (such as high voltage circuitry combined with low voltage control circuitry), you should consider specifying global option `bin_relref=yes'.

~~~~~~~~~~~~~~~~~~~~~~~~~~~~~~~~~
Post-Transient Simulation Summary
~~~~~~~~~~~~~~~~~~~~~~~~~~~~~~~~~
   -   To further speed up simulation, consider
          add ++aps on command line
~~~~~~~~~~~~~~~~~~~~~~~~~~~~~~~~~


During simulation, the CPU load for active processors is :
         0 (40.2 %)      1 (10.1 %)      2 (5.9 %)       3 (28.4 %)
        Total: 84.6%
Initial condition solution time: CPU = 0 s, elapsed = 490.189 us.
Intrinsic tran analysis time:    CPU = 22.996 ms, elapsed = 58.6681 ms.
Total time required for tran analysis `trans-000_trans': CPU = 24.996 ms, elapsed = 61.2268 ms.
Time accumulated: CPU = 11.5242 s, elapsed = 17.5004 s.
Peak resident memory used = 228 Mbytes.


Notice from spectre during task `MDLControl'.
    26 notices suppressed.


**************************************************
DC Analysis `dcs-000_dcs': V0:dc = (0 V -> 300 mV)
**************************************************

Opening the PSF file ./input.raw/dcs-000_dcs.dc ...
Important parameter values:
    reltol = 1e-03
    abstol(V) = 1 uV
    abstol(I) = 1 pA
    temp = 27 C
    tnom = 27 C
    tempeffects = all
    gmindc = 1 pS
    dcs-000_dcs: dc = 12 mV          (4 %), step = 6 mV            (2 %)
    dcs-000_dcs: dc = 18 mV          (6 %), step = 6 mV            (2 %)
    dcs-000_dcs: dc = 24 mV          (8 %), step = 6 mV            (2 %)
    dcs-000_dcs: dc = 30 mV         (10 %), step = 6 mV            (2 %)
    dcs-000_dcs: dc = 36 mV         (12 %), step = 6 mV            (2 %)
    dcs-000_dcs: dc = 42 mV         (14 %), step = 6 mV            (2 %)
    dcs-000_dcs: dc = 48 mV         (16 %), step = 6 mV            (2 %)
    dcs-000_dcs: dc = 54 mV         (18 %), step = 6 mV            (2 %)
    dcs-000_dcs: dc = 60 mV         (20 %), step = 6 mV            (2 %)
    dcs-000_dcs: dc = 66 mV         (22 %), step = 6 mV            (2 %)
    dcs-000_dcs: dc = 72 mV         (24 %), step = 6 mV            (2 %)
    dcs-000_dcs: dc = 78 mV         (26 %), step = 6 mV            (2 %)
    dcs-000_dcs: dc = 84 mV         (28 %), step = 6 mV            (2 %)
    dcs-000_dcs: dc = 90 mV         (30 %), step = 6 mV            (2 %)
    dcs-000_dcs: dc = 96 mV         (32 %), step = 6 mV            (2 %)
    dcs-000_dcs: dc = 102 mV        (34 %), step = 6 mV            (2 %)
    dcs-000_dcs: dc = 108 mV        (36 %), step = 6 mV            (2 %)
    dcs-000_dcs: dc = 114 mV        (38 %), step = 6 mV            (2 %)
    dcs-000_dcs: dc = 120 mV        (40 %), step = 6 mV            (2 %)
    dcs-000_dcs: dc = 126 mV        (42 %), step = 6 mV            (2 %)
    dcs-000_dcs: dc = 132 mV        (44 %), step = 6 mV            (2 %)
    dcs-000_dcs: dc = 138 mV        (46 %), step = 6 mV            (2 %)
    dcs-000_dcs: dc = 144 mV        (48 %), step = 6 mV            (2 %)
    dcs-000_dcs: dc = 150 mV        (50 %), step = 6 mV            (2 %)
    dcs-000_dcs: dc = 156 mV        (52 %), step = 6 mV            (2 %)
    dcs-000_dcs: dc = 162 mV        (54 %), step = 6 mV            (2 %)
    dcs-000_dcs: dc = 168 mV        (56 %), step = 6 mV            (2 %)
    dcs-000_dcs: dc = 174 mV        (58 %), step = 6 mV            (2 %)
    dcs-000_dcs: dc = 180 mV        (60 %), step = 6 mV            (2 %)
    dcs-000_dcs: dc = 186 mV        (62 %), step = 6 mV            (2 %)
    dcs-000_dcs: dc = 192 mV        (64 %), step = 6 mV            (2 %)
    dcs-000_dcs: dc = 198 mV        (66 %), step = 6 mV            (2 %)
    dcs-000_dcs: dc = 204 mV        (68 %), step = 6 mV            (2 %)
    dcs-000_dcs: dc = 210 mV        (70 %), step = 6 mV            (2 %)
    dcs-000_dcs: dc = 216 mV        (72 %), step = 6 mV            (2 %)
    dcs-000_dcs: dc = 222 mV        (74 %), step = 6 mV            (2 %)
    dcs-000_dcs: dc = 228 mV        (76 %), step = 6 mV            (2 %)
    dcs-000_dcs: dc = 234 mV        (78 %), step = 6 mV            (2 %)
    dcs-000_dcs: dc = 240 mV        (80 %), step = 6 mV            (2 %)
    dcs-000_dcs: dc = 246 mV        (82 %), step = 6 mV            (2 %)
    dcs-000_dcs: dc = 252 mV        (84 %), step = 6 mV            (2 %)
    dcs-000_dcs: dc = 258 mV        (86 %), step = 6 mV            (2 %)
    dcs-000_dcs: dc = 264 mV        (88 %), step = 6 mV            (2 %)
    dcs-000_dcs: dc = 270 mV        (90 %), step = 6 mV            (2 %)
    dcs-000_dcs: dc = 276 mV        (92 %), step = 6 mV            (2 %)
    dcs-000_dcs: dc = 282 mV        (94 %), step = 6 mV            (2 %)
    dcs-000_dcs: dc = 288 mV        (96 %), step = 6 mV            (2 %)
    dcs-000_dcs: dc = 294 mV        (98 %), step = 6 mV            (2 %)
    dcs-000_dcs: dc = 300 mV       (100 %), step = 6 mV            (2 %)

Maximum value achieved for any signal of each quantity: 
V: V(net7) = 300 mV
I: I(V1:p) = 914.2 pA
DC simulation time: CPU = 14.997 ms, elapsed = 64.5132 ms.

Notice from spectre at dc = 300 mV during DC analysis `dcs-000_dcs', during task `MDLControl'.
    The value of parameter 'dc' has been reset to the original value 0.

Total time required for dc analysis `dcs-000_dcs': CPU = 14.997 ms, elapsed = 64.5509 ms.
Time accumulated: CPU = 11.5392 s, elapsed = 17.5655 s.
Peak resident memory used = 228 Mbytes.


***********************************************************
Transient Analysis `trans-000_trans': time = (0 s -> 20 us)
***********************************************************
DC simulation time: CPU = 0 s, elapsed = 398.874 us.

Opening the PSFXL file ./input.raw/trans-000_trans.tran.tran ...
Important parameter values:
    start = 0 s
    outputstart = 0 s
    stop = 20 us
    step = 20 ns
    maxstep = 400 ns
    ic = all
    useprevic = no
    skipdc = no
    reltol = 1e-03
    abstol(V) = 1 uV
    abstol(I) = 1 pA
    temp = 27 C
    tnom = 27 C
    tempeffects = all
    errpreset = moderate
    method = traponly
    lteratio = 3.5
    relref = sigglobal
    cmin = 0 F
    gmin = 1 pS


Output and IC/nodeset summary:
                 save   3       (current)
                 save   19      (voltage)
                 others 8       

......

Notice from spectre at time = 2.12783 us during transient analysis `trans-000_trans', during task `MDLControl'.
    Found trapezoidal ringing on node V0:p.

......9

Notice from spectre at time = 2.52783 us during transient analysis `trans-000_trans', during task `MDLControl'.
    Found trapezoidal ringing on node V0:p.

......9..

Notice from spectre at time = 2.92783 us during transient analysis `trans-000_trans', during task `MDLControl'.
    Found trapezoidal ringing on node V0:p.

......9...

Notice from spectre at time = 3.32783 us during transient analysis `trans-000_trans', during task `MDLControl'.
    Found trapezoidal ringing on node V0:p.

......9.....

Notice from spectre at time = 3.72783 us during transient analysis `trans-000_trans', during task `MDLControl'.
    Found trapezoidal ringing on node V0:p.
        Further occurrences of this notice will be suppressed.

......9......8......7......6......5
`AutoStop = yes'. Analysis finished at 10 us.

Number of accepted tran steps =             120

Notice from spectre during transient analysis `trans-000_trans', during task `MDLControl'.
    Trapezoidal ringing is detected during tran analysis.
        Please use method=trap for better results and performance.


Maximum value achieved for any signal of each quantity: 
V: V(I7.PM0:int_d) = 343 mV
I: I(V0:p) = 18.18 uA
If your circuit contains signals of the same quantity that are vastly different in size (such as high voltage circuitry combined with low voltage control circuitry), you should consider specifying global option `bin_relref=yes'.

~~~~~~~~~~~~~~~~~~~~~~~~~~~~~~~~~
Post-Transient Simulation Summary
~~~~~~~~~~~~~~~~~~~~~~~~~~~~~~~~~
   -   To further speed up simulation, consider
          add ++aps on command line
~~~~~~~~~~~~~~~~~~~~~~~~~~~~~~~~~


During simulation, the CPU load for active processors is :
         0 (40.2 %)      1 (10.0 %)      2 (5.9 %)       3 (28.2 %)
        Total: 84.3%
Initial condition solution time: CPU = 0 s, elapsed = 435.829 us.
Intrinsic tran analysis time:    CPU = 20.997 ms, elapsed = 62.686 ms.
Total time required for tran analysis `trans-000_trans': CPU = 22.997 ms, elapsed = 65.1269 ms.
Time accumulated: CPU = 11.5642 s, elapsed = 17.6324 s.
Peak resident memory used = 228 Mbytes.


Notice from spectre during task `MDLControl'.
    26 notices suppressed.


**************************************************
DC Analysis `dcs-000_dcs': V0:dc = (0 V -> 300 mV)
**************************************************

Opening the PSF file ./input.raw/dcs-000_dcs.dc ...
Important parameter values:
    reltol = 1e-03
    abstol(V) = 1 uV
    abstol(I) = 1 pA
    temp = 27 C
    tnom = 27 C
    tempeffects = all
    gmindc = 1 pS
    dcs-000_dcs: dc = 12 mV          (4 %), step = 6 mV            (2 %)
    dcs-000_dcs: dc = 18 mV          (6 %), step = 6 mV            (2 %)
    dcs-000_dcs: dc = 24 mV          (8 %), step = 6 mV            (2 %)
    dcs-000_dcs: dc = 30 mV         (10 %), step = 6 mV            (2 %)
    dcs-000_dcs: dc = 36 mV         (12 %), step = 6 mV            (2 %)
    dcs-000_dcs: dc = 42 mV         (14 %), step = 6 mV            (2 %)
    dcs-000_dcs: dc = 48 mV         (16 %), step = 6 mV            (2 %)
    dcs-000_dcs: dc = 54 mV         (18 %), step = 6 mV            (2 %)
    dcs-000_dcs: dc = 60 mV         (20 %), step = 6 mV            (2 %)
    dcs-000_dcs: dc = 66 mV         (22 %), step = 6 mV            (2 %)
    dcs-000_dcs: dc = 72 mV         (24 %), step = 6 mV            (2 %)
    dcs-000_dcs: dc = 78 mV         (26 %), step = 6 mV            (2 %)
    dcs-000_dcs: dc = 84 mV         (28 %), step = 6 mV            (2 %)
    dcs-000_dcs: dc = 90 mV         (30 %), step = 6 mV            (2 %)
    dcs-000_dcs: dc = 96 mV         (32 %), step = 6 mV            (2 %)
    dcs-000_dcs: dc = 102 mV        (34 %), step = 6 mV            (2 %)
    dcs-000_dcs: dc = 108 mV        (36 %), step = 6 mV            (2 %)
    dcs-000_dcs: dc = 114 mV        (38 %), step = 6 mV            (2 %)
    dcs-000_dcs: dc = 120 mV        (40 %), step = 6 mV            (2 %)
    dcs-000_dcs: dc = 126 mV        (42 %), step = 6 mV            (2 %)
    dcs-000_dcs: dc = 132 mV        (44 %), step = 6 mV            (2 %)
    dcs-000_dcs: dc = 138 mV        (46 %), step = 6 mV            (2 %)
    dcs-000_dcs: dc = 144 mV        (48 %), step = 6 mV            (2 %)
    dcs-000_dcs: dc = 150 mV        (50 %), step = 6 mV            (2 %)
    dcs-000_dcs: dc = 156 mV        (52 %), step = 6 mV            (2 %)
    dcs-000_dcs: dc = 162 mV        (54 %), step = 6 mV            (2 %)
    dcs-000_dcs: dc = 168 mV        (56 %), step = 6 mV            (2 %)
    dcs-000_dcs: dc = 174 mV        (58 %), step = 6 mV            (2 %)
    dcs-000_dcs: dc = 180 mV        (60 %), step = 6 mV            (2 %)
    dcs-000_dcs: dc = 186 mV        (62 %), step = 6 mV            (2 %)
    dcs-000_dcs: dc = 192 mV        (64 %), step = 6 mV            (2 %)
    dcs-000_dcs: dc = 198 mV        (66 %), step = 6 mV            (2 %)
    dcs-000_dcs: dc = 204 mV        (68 %), step = 6 mV            (2 %)
    dcs-000_dcs: dc = 210 mV        (70 %), step = 6 mV            (2 %)
    dcs-000_dcs: dc = 216 mV        (72 %), step = 6 mV            (2 %)
    dcs-000_dcs: dc = 222 mV        (74 %), step = 6 mV            (2 %)
    dcs-000_dcs: dc = 228 mV        (76 %), step = 6 mV            (2 %)
    dcs-000_dcs: dc = 234 mV        (78 %), step = 6 mV            (2 %)
    dcs-000_dcs: dc = 240 mV        (80 %), step = 6 mV            (2 %)
    dcs-000_dcs: dc = 246 mV        (82 %), step = 6 mV            (2 %)
    dcs-000_dcs: dc = 252 mV        (84 %), step = 6 mV            (2 %)
    dcs-000_dcs: dc = 258 mV        (86 %), step = 6 mV            (2 %)
    dcs-000_dcs: dc = 264 mV        (88 %), step = 6 mV            (2 %)
    dcs-000_dcs: dc = 270 mV        (90 %), step = 6 mV            (2 %)
    dcs-000_dcs: dc = 276 mV        (92 %), step = 6 mV            (2 %)
    dcs-000_dcs: dc = 282 mV        (94 %), step = 6 mV            (2 %)
    dcs-000_dcs: dc = 288 mV        (96 %), step = 6 mV            (2 %)
    dcs-000_dcs: dc = 294 mV        (98 %), step = 6 mV            (2 %)
    dcs-000_dcs: dc = 300 mV       (100 %), step = 6 mV            (2 %)

Maximum value achieved for any signal of each quantity: 
V: V(net7) = 300 mV
I: I(V1:p) = 914.2 pA
DC simulation time: CPU = 18.997 ms, elapsed = 66.3619 ms.

Notice from spectre at dc = 300 mV during DC analysis `dcs-000_dcs', during task `MDLControl'.
    The value of parameter 'dc' has been reset to the original value 0.

Total time required for dc analysis `dcs-000_dcs': CPU = 18.997 ms, elapsed = 66.406 ms.
Time accumulated: CPU = 11.5852 s, elapsed = 17.7537 s.
Peak resident memory used = 228 Mbytes.


Aggregate audit (2:57:05 PM, Fri Dec 10, 2021):
Time used: CPU = 11.7 s, elapsed = 18 s, util. = 65.2%.
Time spent in licensing: elapsed = 223 ms.
Peak memory used = 228 Mbytes.
Simulation started at: 2:56:47 PM, Fri Dec 10, 2021, ended at: 2:57:05 PM, Fri Dec 10, 2021, with elapsed time (wall clock): 18 s.
spectre completes with 0 errors, 204 warnings, and 626 notices.
