
Spectre (R) Circuit Simulator
Version 19.1.0.396.isr8 64bit -- 19 Jun 2020
Copyright (C) 1989-2020 Cadence Design Systems, Inc. All rights reserved worldwide. Cadence and Spectre are registered trademarks of Cadence Design Systems, Inc. All others are the property of their respective holders.

Includes RSA BSAFE(R) Cryptographic or Security Protocol Software from RSA Security, Inc.

User: VLSI_ANALOG   Host: cad19   HostID: 7F0100   PID: 32418
Memory  available: 1.0935 GB  physical: 3.9327 GB
Linux   : Red Hat Enterprise Linux Server release 6.9 (Santiago)
CPU Type: Intel(R) Core(TM) i5-2320 CPU @ 3.00GHz
All processors running at 1600.0 MHz
        Socket: Processors
        0:       0,  1,  2,  3
        
System load averages (1min, 5min, 15min) : 2.8 %, 1.2 %, 0.2 %


Simulating `./input.scs' on cad19 at 3:44:29 PM, Tue Nov 30, 2021 (process id: 32418).
Current working directory: /home/VLSI_ANALOG/UMC180/Designkits/Cadence_6.1/lowpower28/spectremdl/new
Command line:
    /home/installs/SPECTRE191/tools.lnx86/bin/spectre -64 =mdl  \
        input.mdl ./input.scs

Loading /home/installs/SPECTRE191/tools.lnx86/cmi/lib/64bit/5.0/libinfineon_sh.so ...
Loading /home/installs/SPECTRE191/tools.lnx86/cmi/lib/64bit/5.0/libphilips_o_sh.so ...
Loading /home/installs/SPECTRE191/tools.lnx86/cmi/lib/64bit/5.0/libphilips_sh.so ...
Loading /home/installs/SPECTRE191/tools.lnx86/cmi/lib/64bit/5.0/libsparam_sh.so ...
Loading /home/installs/SPECTRE191/tools.lnx86/cmi/lib/64bit/5.0/libstmodels_sh.so ...
Loading /home/installs/SPECTRE191/tools.lnx86/spectre/lib/64bit/mdl/libSpectreEH_sh.so ...
Reading file:  /home/VLSI_ANALOG/UMC180/Designkits/Cadence_6.1/lowpower28/spectremdl/new/input.mdl
Reading file:  /home/VLSI_ANALOG/UMC180/Designkits/Cadence_6.1/lowpower28/spectremdl/new/input.scs
Reading file:  /home/installs/SPECTRE191/tools.lnx86/spectre/etc/configs/spectre.cfg
Reading file:  /home/VLSI_ANALOG/UMCLib/pdk/UMC/28/_G-01-LOGIC_MIXED_MODE28N-HPC/Designkits/Cadence_IC6/G-9FD-LOGIC_MIXED_MODE28N-HPC_UM028FDKHCC0000OA-FDK-Ver.A14_PB/UM028FDKHCC0000OA_A14_DESIGNKIT/UM028FDKHCC0000OA_A14_PB/Models/Spectre/l28hpc_mm_v1201.lib.scs
Reading file:  /home/VLSI_ANALOG/UMCLib/pdk/UMC/28/_G-01-LOGIC_MIXED_MODE28N-HPC/Designkits/Cadence_IC6/G-9FD-LOGIC_MIXED_MODE28N-HPC_UM028FDKHCC0000OA-FDK-Ver.A14_PB/UM028FDKHCC0000OA_A14_DESIGNKIT/UM028FDKHCC0000OA_A14_PB/Models/Spectre/l28hpc_rf_v017.lib.scs
Time for NDB Parsing: CPU = 4.89426 s, elapsed = 7.98153 s.
Time accumulated: CPU = 5.08922 s, elapsed = 7.98154 s.
Peak resident memory used = 215 Mbytes.


Warning from spectre during hierarchy flattening.
    WARNING (SFE-1131): Scope option `scalefactor' specified with scope `TopCircuit' at line `680' has also been specified at line `729' in file `/home/VLSI_ANALOG/UMCLib/pdk/UMC/28/_G-01-LOGIC_MIXED_MODE28N-HPC/Designkits/Cadence_IC6/G-9FD-LOGIC_MIXED_MODE28N-HPC_UM028FDKHCC0000OA-FDK-Ver.A14_PB/UM028FDKHCC0000OA_A14_DESIGNKIT/UM028FDKHCC0000OA_A14_PB/umc28hpc/../Models/Spectre/l28hpc_rf_v017.lib.scs'. As a result, the last specified value will be used for simulation.

Time for Elaboration: CPU = 70.99 ms, elapsed = 176.521 ms.
Time accumulated: CPU = 5.16021 s, elapsed = 8.15827 s.
Peak resident memory used = 228 Mbytes.


Warning from spectre during hierarchy flattening.
    WARNING (SPECTRE-17101): The value 'psf' specified for the 'checklimitdest' option will no longer be supported in future releases. Use 'spectre -h' to see other recommended values for the 'checklimitdest' option.


Time for EDB Visiting: CPU = 2.999 ms, elapsed = 15.7259 ms.
Time accumulated: CPU = 5.16321 s, elapsed = 8.17421 s.
Peak resident memory used = 229 Mbytes.


Global user options:
         psfversion = 1.4.0
            vabstol = 1e-06
            iabstol = 1e-12
               temp = 27
               gmin = 1e-12
             rforce = 1
           maxnotes = 5
           maxwarns = 5
             digits = 5
               cols = 80
             pivrel = 0.001
           sensfile = ../psf/sens.output
     checklimitdest = psf
               save = allpub
        scalefactor = 0.9
             reltol = 0.001
               tnom = 27
             scalem = 1
              scale = 1

Scoped user options:

Circuit inventory:
              nodes 8
              bsim4 8     
          capacitor 1     
              diode 4     
            vsource 4     

Analysis and control statement inventory:
               info 7     
               tran 1     

Output statements:
             .probe 0     
           .measure 0     
               save 0     

Time for parsing: CPU = 2.999 ms, elapsed = 107.903 ms.
Time accumulated: CPU = 5.16621 s, elapsed = 8.28224 s.
Peak resident memory used = 231 Mbytes.

~~~~~~~~~~~~~~~~~~~~~~
Pre-Simulation Summary
~~~~~~~~~~~~~~~~~~~~~~
~~~~~~~~~~~~~~~~~~~~~~

*************************************************
Transient Analysis `trans': time = (0 s -> 20 us)
*************************************************
DC simulation time: CPU = 2 ms, elapsed = 11.488 ms.

Opening the PSFXL file ./input.raw/trans.tran.tran ...
Important parameter values:
    start = 0 s
    outputstart = 0 s
    stop = 20 us
    step = 20 ns
    maxstep = 400 ns
    ic = all
    useprevic = no
    skipdc = no
    reltol = 1e-03
    abstol(V) = 1 uV
    abstol(I) = 1 pA
    temp = 27 C
    tnom = 27 C
    tempeffects = all
    errpreset = moderate
    method = traponly
    lteratio = 3.5
    relref = sigglobal
    cmin = 0 F
    gmin = 1 pS


Output and IC/nodeset summary:
                 save   4       (current)
                 save   8       (voltage)


Notice from spectre at time = 651.652 ps during transient analysis `trans', during task `MDLControl'.
    Found trapezoidal ringing on node I3.NM1:int_g.
Notice from spectre at time = 1.31512 ns during transient analysis `trans', during task `MDLControl'.
    Found trapezoidal ringing on node I3.NM1:int_g.
Notice from spectre at time = 1.35549 ns during transient analysis `trans', during task `MDLControl'.
    Found trapezoidal ringing on node I3.NM1:int_g.

..

Notice from spectre at time = 1.0604 us during transient analysis `trans', during task `MDLControl'.
    Found trapezoidal ringing on node V1:p.

....

Notice from spectre at time = 1.4604 us during transient analysis `trans', during task `MDLControl'.
    Found trapezoidal ringing on node V1:p.
        Further occurrences of this notice will be suppressed.

......9..
`AutoStop = yes'. Analysis finished at 2.50144 us.

Number of accepted tran steps =             104

Notice from spectre during transient analysis `trans', during task `MDLControl'.
    Trapezoidal ringing is detected during tran analysis.
        Please use method=trap for better results and performance.


Maximum value achieved for any signal of each quantity: 
V: V(I3.PM2:int_s) = 425.5 mV
I: I(V1:p) = 57.73 uA
If your circuit contains signals of the same quantity that are vastly different in size (such as high voltage circuitry combined with low voltage control circuitry), you should consider specifying global option `bin_relref=yes'.

~~~~~~~~~~~~~~~~~~~~~~~~~~~~~~~~~
Post-Transient Simulation Summary
~~~~~~~~~~~~~~~~~~~~~~~~~~~~~~~~~
   -   To further speed up simulation, consider
          add ++aps on command line
~~~~~~~~~~~~~~~~~~~~~~~~~~~~~~~~~


During simulation, the CPU load for active processors is :
         0 (61.3 %)      1 (1.3 %)      
        Total: 63.5%
Initial condition solution time: CPU = 2 ms, elapsed = 11.5719 ms.
Intrinsic tran analysis time:    CPU = 27.996 ms, elapsed = 121.621 ms.
Total time required for tran analysis `trans': CPU = 31.995 ms, elapsed = 142.968 ms.
Time accumulated: CPU = 5.20621 s, elapsed = 8.4725 s.
Peak resident memory used = 234 Mbytes.


Notice from spectre during task `MDLControl'.
    7 notices suppressed.


Opening the PSF file ./input.raw/trans.optimize ...

***********************************************************
Transient Analysis `trans-000_trans': time = (0 s -> 20 us)
***********************************************************
DC simulation time: CPU = 1 ms, elapsed = 1.2908 ms.

Opening the PSFXL file ./input.raw/trans-000_trans.tran.tran ...
Important parameter values:
    start = 0 s
    outputstart = 0 s
    stop = 20 us
    step = 20 ns
    maxstep = 400 ns
    ic = all
    useprevic = no
    skipdc = no
    reltol = 1e-03
    abstol(V) = 1 uV
    abstol(I) = 1 pA
    temp = 27 C
    tnom = 27 C
    tempeffects = all
    errpreset = moderate
    method = traponly
    lteratio = 3.5
    relref = sigglobal
    cmin = 0 F
    gmin = 1 pS


Output and IC/nodeset summary:
                 save   4       (current)
                 save   8       (voltage)


Notice from spectre at time = 651.652 ps during transient analysis `trans-000_trans', during task `MDLControl'.
    Found trapezoidal ringing on node I3.NM1:int_g.
Notice from spectre at time = 1.31512 ns during transient analysis `trans-000_trans', during task `MDLControl'.
    Found trapezoidal ringing on node I3.NM1:int_g.
Notice from spectre at time = 1.35549 ns during transient analysis `trans-000_trans', during task `MDLControl'.
    Found trapezoidal ringing on node I3.NM1:int_g.

..

Notice from spectre at time = 1.0604 us during transient analysis `trans-000_trans', during task `MDLControl'.
    Found trapezoidal ringing on node V1:p.

....

Notice from spectre at time = 1.4604 us during transient analysis `trans-000_trans', during task `MDLControl'.
    Found trapezoidal ringing on node V1:p.
        Further occurrences of this notice will be suppressed.

......9..
`AutoStop = yes'. Analysis finished at 2.50144 us.

Number of accepted tran steps =             104

Notice from spectre during transient analysis `trans-000_trans', during task `MDLControl'.
    Trapezoidal ringing is detected during tran analysis.
        Please use method=trap for better results and performance.


Maximum value achieved for any signal of each quantity: 
V: V(I3.PM2:int_s) = 425.5 mV
I: I(V1:p) = 57.73 uA
If your circuit contains signals of the same quantity that are vastly different in size (such as high voltage circuitry combined with low voltage control circuitry), you should consider specifying global option `bin_relref=yes'.

~~~~~~~~~~~~~~~~~~~~~~~~~~~~~~~~~
Post-Transient Simulation Summary
~~~~~~~~~~~~~~~~~~~~~~~~~~~~~~~~~
   -   To further speed up simulation, consider
          add ++aps on command line
~~~~~~~~~~~~~~~~~~~~~~~~~~~~~~~~~


During simulation, the CPU load for active processors is :
         0 (60.1 %)      1 (1.8 %)      
        Total: 62.7%
Initial condition solution time: CPU = 1 ms, elapsed = 1.37782 ms.
Intrinsic tran analysis time:    CPU = 24.995 ms, elapsed = 52.6869 ms.
Total time required for tran analysis `trans-000_trans': CPU = 29.995 ms, elapsed = 57.596 ms.
Time accumulated: CPU = 5.2462 s, elapsed = 8.65907 s.
Peak resident memory used = 234 Mbytes.


Notice from spectre during task `MDLControl'.
    7 notices suppressed.
Warning from spectre.
    WARNING (SPECTRE-17101): The value 'psf' specified for the 'checklimitdest' option will no longer be supported in future releases. Use 'spectre -h' to see other recommended values for the 'checklimitdest' option.


***********************************************************
Transient Analysis `trans-000_trans': time = (0 s -> 20 us)
***********************************************************
DC simulation time: CPU = 999 us, elapsed = 722.885 us.

Opening the PSFXL file ./input.raw/trans-000_trans.tran.tran ...
Important parameter values:
    start = 0 s
    outputstart = 0 s
    stop = 20 us
    step = 20 ns
    maxstep = 400 ns
    ic = all
    useprevic = no
    skipdc = no
    reltol = 1e-03
    abstol(V) = 1 uV
    abstol(I) = 1 pA
    temp = 27 C
    tnom = 27 C
    tempeffects = all
    errpreset = moderate
    method = traponly
    lteratio = 3.5
    relref = sigglobal
    cmin = 0 F
    gmin = 1 pS


Output and IC/nodeset summary:
                 save   4       (current)
                 save   8       (voltage)


Notice from spectre at time = 651.651 ps during transient analysis `trans-000_trans', during task `MDLControl'.
    Found trapezoidal ringing on node I3.NM1:int_g.
Notice from spectre at time = 1.31569 ns during transient analysis `trans-000_trans', during task `MDLControl'.
    Found trapezoidal ringing on node I3.NM1:int_g.
Notice from spectre at time = 1.35638 ns during transient analysis `trans-000_trans', during task `MDLControl'.
    Found trapezoidal ringing on node I3.NM1:int_g.

..

Notice from spectre at time = 1.05172 us during transient analysis `trans-000_trans', during task `MDLControl'.
    Found trapezoidal ringing on node V1:p.

....

Notice from spectre at time = 1.45172 us during transient analysis `trans-000_trans', during task `MDLControl'.
    Found trapezoidal ringing on node V1:p.
        Further occurrences of this notice will be suppressed.

......9..
`AutoStop = yes'. Analysis finished at 2.50144 us.

Number of accepted tran steps =             104

Notice from spectre during transient analysis `trans-000_trans', during task `MDLControl'.
    Trapezoidal ringing is detected during tran analysis.
        Please use method=trap for better results and performance.


Maximum value achieved for any signal of each quantity: 
V: V(I3.PM2:int_s) = 425.5 mV
I: I(V1:p) = 57.78 uA
If your circuit contains signals of the same quantity that are vastly different in size (such as high voltage circuitry combined with low voltage control circuitry), you should consider specifying global option `bin_relref=yes'.

~~~~~~~~~~~~~~~~~~~~~~~~~~~~~~~~~
Post-Transient Simulation Summary
~~~~~~~~~~~~~~~~~~~~~~~~~~~~~~~~~
   -   To further speed up simulation, consider
          add ++aps on command line
~~~~~~~~~~~~~~~~~~~~~~~~~~~~~~~~~


During simulation, the CPU load for active processors is :
         0 (59.6 %)      1 (2.2 %)      
        Total: 62.7%
Initial condition solution time: CPU = 999 us, elapsed = 768.9 us.
Intrinsic tran analysis time:    CPU = 21.997 ms, elapsed = 49.9251 ms.
Total time required for tran analysis `trans-000_trans': CPU = 24.996 ms, elapsed = 52.6412 ms.
Time accumulated: CPU = 5.2912 s, elapsed = 8.73189 s.
Peak resident memory used = 235 Mbytes.


Notice from spectre during task `MDLControl'.
    7 notices suppressed.
Warning from spectre.
    WARNING (SPECTRE-17101): The value 'psf' specified for the 'checklimitdest' option will no longer be supported in future releases. Use 'spectre -h' to see other recommended values for the 'checklimitdest' option.
    WARNING (SPECTRE-17101): The value 'psf' specified for the 'checklimitdest' option will no longer be supported in future releases. Use 'spectre -h' to see other recommended values for the 'checklimitdest' option.


***********************************************************
Transient Analysis `trans-000_trans': time = (0 s -> 20 us)
***********************************************************
DC simulation time: CPU = 999 us, elapsed = 708.818 us.

Opening the PSFXL file ./input.raw/trans-000_trans.tran.tran ...
Important parameter values:
    start = 0 s
    outputstart = 0 s
    stop = 20 us
    step = 20 ns
    maxstep = 400 ns
    ic = all
    useprevic = no
    skipdc = no
    reltol = 1e-03
    abstol(V) = 1 uV
    abstol(I) = 1 pA
    temp = 27 C
    tnom = 27 C
    tempeffects = all
    errpreset = moderate
    method = traponly
    lteratio = 3.5
    relref = sigglobal
    cmin = 0 F
    gmin = 1 pS


Output and IC/nodeset summary:
                 save   4       (current)
                 save   8       (voltage)


Notice from spectre at time = 651.544 ps during transient analysis `trans-000_trans', during task `MDLControl'.
    Found trapezoidal ringing on node I3.NM1:int_g.
Notice from spectre at time = 1.31493 ns during transient analysis `trans-000_trans', during task `MDLControl'.
    Found trapezoidal ringing on node I3.NM0:int_g.
Notice from spectre at time = 1.35529 ns during transient analysis `trans-000_trans', during task `MDLControl'.
    Found trapezoidal ringing on node I3.NM0:int_g.

..

Notice from spectre at time = 1.06002 us during transient analysis `trans-000_trans', during task `MDLControl'.
    Found trapezoidal ringing on node V1:p.

....

Notice from spectre at time = 1.46002 us during transient analysis `trans-000_trans', during task `MDLControl'.
    Found trapezoidal ringing on node V1:p.
        Further occurrences of this notice will be suppressed.

......9..
`AutoStop = yes'. Analysis finished at 2.50144 us.

Number of accepted tran steps =             104

Notice from spectre during transient analysis `trans-000_trans', during task `MDLControl'.
    Trapezoidal ringing is detected during tran analysis.
        Please use method=trap for better results and performance.


Maximum value achieved for any signal of each quantity: 
V: V(I3.PM2:int_s) = 425.5 mV
I: I(V1:p) = 57.74 uA
If your circuit contains signals of the same quantity that are vastly different in size (such as high voltage circuitry combined with low voltage control circuitry), you should consider specifying global option `bin_relref=yes'.

~~~~~~~~~~~~~~~~~~~~~~~~~~~~~~~~~
Post-Transient Simulation Summary
~~~~~~~~~~~~~~~~~~~~~~~~~~~~~~~~~
   -   To further speed up simulation, consider
          add ++aps on command line
~~~~~~~~~~~~~~~~~~~~~~~~~~~~~~~~~


During simulation, the CPU load for active processors is :
         0 (59.1 %)      1 (2.9 %)      
        Total: 62.9%
Initial condition solution time: CPU = 999 us, elapsed = 751.972 us.
Intrinsic tran analysis time:    CPU = 20.997 ms, elapsed = 50.0951 ms.
Total time required for tran analysis `trans-000_trans': CPU = 23.996 ms, elapsed = 52.778 ms.
Time accumulated: CPU = 5.35218 s, elapsed = 8.82288 s.
Peak resident memory used = 235 Mbytes.


Notice from spectre during task `MDLControl'.
    7 notices suppressed.
Warning from spectre.
    WARNING (SPECTRE-17101): The value 'psf' specified for the 'checklimitdest' option will no longer be supported in future releases. Use 'spectre -h' to see other recommended values for the 'checklimitdest' option.
    WARNING (SPECTRE-17101): The value 'psf' specified for the 'checklimitdest' option will no longer be supported in future releases. Use 'spectre -h' to see other recommended values for the 'checklimitdest' option.


***********************************************************
Transient Analysis `trans-000_trans': time = (0 s -> 20 us)
***********************************************************
DC simulation time: CPU = 1 ms, elapsed = 657.082 us.

Opening the PSFXL file ./input.raw/trans-000_trans.tran.tran ...
Important parameter values:
    start = 0 s
    outputstart = 0 s
    stop = 20 us
    step = 20 ns
    maxstep = 400 ns
    ic = all
    useprevic = no
    skipdc = no
    reltol = 1e-03
    abstol(V) = 1 uV
    abstol(I) = 1 pA
    temp = 27 C
    tnom = 27 C
    tempeffects = all
    errpreset = moderate
    method = traponly
    lteratio = 3.5
    relref = sigglobal
    cmin = 0 F
    gmin = 1 pS


Output and IC/nodeset summary:
                 save   4       (current)
                 save   8       (voltage)

.

Notice from spectre at time = 598.479 ns during transient analysis `trans-000_trans', during task `MDLControl'.
    Found trapezoidal ringing on node I3.NM2:int_s.

..

Notice from spectre at time = 998.479 ns during transient analysis `trans-000_trans', during task `MDLControl'.
    Found trapezoidal ringing on node V0:p.

...

Notice from spectre at time = 1.39848 us during transient analysis `trans-000_trans', during task `MDLControl'.
    Found trapezoidal ringing on node V0:p.

.....

Notice from spectre at time = 1.79848 us during transient analysis `trans-000_trans', during task `MDLControl'.
    Found trapezoidal ringing on node V0:p.

......

Notice from spectre at time = 2.19848 us during transient analysis `trans-000_trans', during task `MDLControl'.
    Found trapezoidal ringing on node V0:p.
        Further occurrences of this notice will be suppressed.

......9..
`AutoStop = yes'. Analysis finished at 2.50228 us.

Number of accepted tran steps =             97

Notice from spectre during transient analysis `trans-000_trans', during task `MDLControl'.
    Trapezoidal ringing is detected during tran analysis.
        Please use method=trap for better results and performance.


Maximum value achieved for any signal of each quantity: 
V: V(I3.PM2:int_s) = 429.3 mV
I: I(V1:p) = 5.455 uA
If your circuit contains signals of the same quantity that are vastly different in size (such as high voltage circuitry combined with low voltage control circuitry), you should consider specifying global option `bin_relref=yes'.

~~~~~~~~~~~~~~~~~~~~~~~~~~~~~~~~~
Post-Transient Simulation Summary
~~~~~~~~~~~~~~~~~~~~~~~~~~~~~~~~~
   -   To further speed up simulation, consider
          add ++aps on command line
~~~~~~~~~~~~~~~~~~~~~~~~~~~~~~~~~


During simulation, the CPU load for active processors is :
         0 (58.5 %)      1 (3.7 %)      
        Total: 63.1%
Initial condition solution time: CPU = 1 ms, elapsed = 704.05 us.
Intrinsic tran analysis time:    CPU = 18.998 ms, elapsed = 47.2271 ms.
Total time required for tran analysis `trans-000_trans': CPU = 21.998 ms, elapsed = 49.896 ms.
Time accumulated: CPU = 5.41418 s, elapsed = 8.91309 s.
Peak resident memory used = 235 Mbytes.


Notice from spectre during task `MDLControl'.
    2 notices suppressed.
Warning from spectre.
    WARNING (SPECTRE-17101): The value 'psf' specified for the 'checklimitdest' option will no longer be supported in future releases. Use 'spectre -h' to see other recommended values for the 'checklimitdest' option.
    WARNING (SPECTRE-17101): The value 'psf' specified for the 'checklimitdest' option will no longer be supported in future releases. Use 'spectre -h' to see other recommended values for the 'checklimitdest' option.


***********************************************************
Transient Analysis `trans-000_trans': time = (0 s -> 20 us)
***********************************************************
DC simulation time: CPU = 1 ms, elapsed = 694.99 us.

Opening the PSFXL file ./input.raw/trans-000_trans.tran.tran ...
Important parameter values:
    start = 0 s
    outputstart = 0 s
    stop = 20 us
    step = 20 ns
    maxstep = 400 ns
    ic = all
    useprevic = no
    skipdc = no
    reltol = 1e-03
    abstol(V) = 1 uV
    abstol(I) = 1 pA
    temp = 27 C
    tnom = 27 C
    tempeffects = all
    errpreset = moderate
    method = traponly
    lteratio = 3.5
    relref = sigglobal
    cmin = 0 F
    gmin = 1 pS


Output and IC/nodeset summary:
                 save   4       (current)
                 save   8       (voltage)


Notice from spectre at time = 1.23161 ns during transient analysis `trans-000_trans', during task `MDLControl'.
    Found trapezoidal ringing on node I3.NM1:int_g.
Notice from spectre at time = 1.27262 ns during transient analysis `trans-000_trans', during task `MDLControl'.
    Found trapezoidal ringing on node I3.NM1:int_g.
Notice from spectre at time = 1.33752 ns during transient analysis `trans-000_trans', during task `MDLControl'.
    Found trapezoidal ringing on node I3.NM1:int_g.

.....

Notice from spectre at time = 1.68754 us during transient analysis `trans-000_trans', during task `MDLControl'.
    Found trapezoidal ringing on node V3:p.

......

Notice from spectre at time = 2.08754 us during transient analysis `trans-000_trans', during task `MDLControl'.
    Found trapezoidal ringing on node V3:p.
        Further occurrences of this notice will be suppressed.

......9..
`AutoStop = yes'. Analysis finished at 2.50152 us.

Number of accepted tran steps =             99

Notice from spectre during transient analysis `trans-000_trans', during task `MDLControl'.
    Trapezoidal ringing is detected during tran analysis.
        Please use method=trap for better results and performance.


Maximum value achieved for any signal of each quantity: 
V: V(I3.PM2:int_s) = 425.9 mV
I: I(V1:p) = 44.58 uA
If your circuit contains signals of the same quantity that are vastly different in size (such as high voltage circuitry combined with low voltage control circuitry), you should consider specifying global option `bin_relref=yes'.

~~~~~~~~~~~~~~~~~~~~~~~~~~~~~~~~~
Post-Transient Simulation Summary
~~~~~~~~~~~~~~~~~~~~~~~~~~~~~~~~~
   -   To further speed up simulation, consider
          add ++aps on command line
~~~~~~~~~~~~~~~~~~~~~~~~~~~~~~~~~


During simulation, the CPU load for active processors is :
         0 (57.9 %)      1 (4.3 %)      
        Total: 63.3%
Initial condition solution time: CPU = 1 ms, elapsed = 739.098 us.
Intrinsic tran analysis time:    CPU = 22.996 ms, elapsed = 54.5409 ms.
Total time required for tran analysis `trans-000_trans': CPU = 26.996 ms, elapsed = 57.2631 ms.
Time accumulated: CPU = 5.47917 s, elapsed = 9.00968 s.
Peak resident memory used = 235 Mbytes.


Notice from spectre during task `MDLControl'.
    1 notice suppressed.
Warning from spectre.
    WARNING (SPECTRE-17101): The value 'psf' specified for the 'checklimitdest' option will no longer be supported in future releases. Use 'spectre -h' to see other recommended values for the 'checklimitdest' option.


***********************************************************
Transient Analysis `trans-000_trans': time = (0 s -> 20 us)
***********************************************************
DC simulation time: CPU = 1 ms, elapsed = 703.096 us.

Opening the PSFXL file ./input.raw/trans-000_trans.tran.tran ...
Important parameter values:
    start = 0 s
    outputstart = 0 s
    stop = 20 us
    step = 20 ns
    maxstep = 400 ns
    ic = all
    useprevic = no
    skipdc = no
    reltol = 1e-03
    abstol(V) = 1 uV
    abstol(I) = 1 pA
    temp = 27 C
    tnom = 27 C
    tempeffects = all
    errpreset = moderate
    method = traponly
    lteratio = 3.5
    relref = sigglobal
    cmin = 0 F
    gmin = 1 pS


Output and IC/nodeset summary:
                 save   4       (current)
                 save   8       (voltage)


Notice from spectre at time = 1.232 ns during transient analysis `trans-000_trans', during task `MDLControl'.
    Found trapezoidal ringing on node I3.NM1:int_g.
Notice from spectre at time = 1.27312 ns during transient analysis `trans-000_trans', during task `MDLControl'.
    Found trapezoidal ringing on node I3.NM1:int_g.
Notice from spectre at time = 1.33818 ns during transient analysis `trans-000_trans', during task `MDLControl'.
    Found trapezoidal ringing on node I3.NM1:int_g.

....

Notice from spectre at time = 1.68306 us during transient analysis `trans-000_trans', during task `MDLControl'.
    Found trapezoidal ringing on node V3:p.

......

Notice from spectre at time = 2.08306 us during transient analysis `trans-000_trans', during task `MDLControl'.
    Found trapezoidal ringing on node V3:p.
        Further occurrences of this notice will be suppressed.

......9..
`AutoStop = yes'. Analysis finished at 2.50152 us.

Number of accepted tran steps =             99

Notice from spectre during transient analysis `trans-000_trans', during task `MDLControl'.
    Trapezoidal ringing is detected during tran analysis.
        Please use method=trap for better results and performance.


Maximum value achieved for any signal of each quantity: 
V: V(I3.PM2:int_s) = 425.9 mV
I: I(V1:p) = 44.62 uA
If your circuit contains signals of the same quantity that are vastly different in size (such as high voltage circuitry combined with low voltage control circuitry), you should consider specifying global option `bin_relref=yes'.

~~~~~~~~~~~~~~~~~~~~~~~~~~~~~~~~~
Post-Transient Simulation Summary
~~~~~~~~~~~~~~~~~~~~~~~~~~~~~~~~~
   -   To further speed up simulation, consider
          add ++aps on command line
~~~~~~~~~~~~~~~~~~~~~~~~~~~~~~~~~


During simulation, the CPU load for active processors is :
         0 (57.5 %)      1 (4.8 %)       2 (1.0 %)      
        Total: 63.5%
Initial condition solution time: CPU = 1 ms, elapsed = 749.111 us.
Intrinsic tran analysis time:    CPU = 25.995 ms, elapsed = 54.359 ms.
Total time required for tran analysis `trans-000_trans': CPU = 28.995 ms, elapsed = 57.1139 ms.
Time accumulated: CPU = 5.52916 s, elapsed = 9.08736 s.
Peak resident memory used = 235 Mbytes.


Notice from spectre during task `MDLControl'.
    1 notice suppressed.
Warning from spectre.
    WARNING (SPECTRE-17101): The value 'psf' specified for the 'checklimitdest' option will no longer be supported in future releases. Use 'spectre -h' to see other recommended values for the 'checklimitdest' option.
    WARNING (SPECTRE-17101): The value 'psf' specified for the 'checklimitdest' option will no longer be supported in future releases. Use 'spectre -h' to see other recommended values for the 'checklimitdest' option.


***********************************************************
Transient Analysis `trans-000_trans': time = (0 s -> 20 us)
***********************************************************
DC simulation time: CPU = 1 ms, elapsed = 703.096 us.

Opening the PSFXL file ./input.raw/trans-000_trans.tran.tran ...
Important parameter values:
    start = 0 s
    outputstart = 0 s
    stop = 20 us
    step = 20 ns
    maxstep = 400 ns
    ic = all
    useprevic = no
    skipdc = no
    reltol = 1e-03
    abstol(V) = 1 uV
    abstol(I) = 1 pA
    temp = 27 C
    tnom = 27 C
    tempeffects = all
    errpreset = moderate
    method = traponly
    lteratio = 3.5
    relref = sigglobal
    cmin = 0 F
    gmin = 1 pS


Output and IC/nodeset summary:
                 save   4       (current)
                 save   8       (voltage)


Notice from spectre at time = 1.23148 ns during transient analysis `trans-000_trans', during task `MDLControl'.
    Found trapezoidal ringing on node I3.NM1:int_g.
Notice from spectre at time = 1.27246 ns during transient analysis `trans-000_trans', during task `MDLControl'.
    Found trapezoidal ringing on node I3.NM1:int_g.
Notice from spectre at time = 1.33734 ns during transient analysis `trans-000_trans', during task `MDLControl'.
    Found trapezoidal ringing on node I3.NM1:int_g.

.....

Notice from spectre at time = 1.68814 us during transient analysis `trans-000_trans', during task `MDLControl'.
    Found trapezoidal ringing on node V3:p.

......

Notice from spectre at time = 2.08814 us during transient analysis `trans-000_trans', during task `MDLControl'.
    Found trapezoidal ringing on node V3:p.
        Further occurrences of this notice will be suppressed.

......9..
`AutoStop = yes'. Analysis finished at 2.50152 us.

Number of accepted tran steps =             99

Notice from spectre during transient analysis `trans-000_trans', during task `MDLControl'.
    Trapezoidal ringing is detected during tran analysis.
        Please use method=trap for better results and performance.


Maximum value achieved for any signal of each quantity: 
V: V(I3.PM2:int_s) = 425.9 mV
I: I(V1:p) = 44.59 uA
If your circuit contains signals of the same quantity that are vastly different in size (such as high voltage circuitry combined with low voltage control circuitry), you should consider specifying global option `bin_relref=yes'.

~~~~~~~~~~~~~~~~~~~~~~~~~~~~~~~~~
Post-Transient Simulation Summary
~~~~~~~~~~~~~~~~~~~~~~~~~~~~~~~~~
   -   To further speed up simulation, consider
          add ++aps on command line
~~~~~~~~~~~~~~~~~~~~~~~~~~~~~~~~~


During simulation, the CPU load for active processors is :
         0 (57.0 %)      1 (5.5 %)       2 (1.0 %)      
        Total: 63.6%
Initial condition solution time: CPU = 1 ms, elapsed = 746.012 us.
Intrinsic tran analysis time:    CPU = 19.997 ms, elapsed = 53.077 ms.
Total time required for tran analysis `trans-000_trans': CPU = 21.997 ms, elapsed = 55.727 ms.
Time accumulated: CPU = 5.59115 s, elapsed = 9.18261 s.
Peak resident memory used = 235 Mbytes.


Notice from spectre during task `MDLControl'.
    1 notice suppressed.
Warning from spectre.
    WARNING (SPECTRE-17101): The value 'psf' specified for the 'checklimitdest' option will no longer be supported in future releases. Use 'spectre -h' to see other recommended values for the 'checklimitdest' option.
    WARNING (SPECTRE-17101): The value 'psf' specified for the 'checklimitdest' option will no longer be supported in future releases. Use 'spectre -h' to see other recommended values for the 'checklimitdest' option.


***********************************************************
Transient Analysis `trans-000_trans': time = (0 s -> 20 us)
***********************************************************
DC simulation time: CPU = 1 ms, elapsed = 752.211 us.

Opening the PSFXL file ./input.raw/trans-000_trans.tran.tran ...
Important parameter values:
    start = 0 s
    outputstart = 0 s
    stop = 20 us
    step = 20 ns
    maxstep = 400 ns
    ic = all
    useprevic = no
    skipdc = no
    reltol = 1e-03
    abstol(V) = 1 uV
    abstol(I) = 1 pA
    temp = 27 C
    tnom = 27 C
    tempeffects = all
    errpreset = moderate
    method = traponly
    lteratio = 3.5
    relref = sigglobal
    cmin = 0 F
    gmin = 1 pS


Output and IC/nodeset summary:
                 save   4       (current)
                 save   8       (voltage)


Notice from spectre at time = 3.75287 ns during transient analysis `trans-000_trans', during task `MDLControl'.
    Found trapezoidal ringing on node I3.NM1:int_g.
Notice from spectre at time = 3.76099 ns during transient analysis `trans-000_trans', during task `MDLControl'.
    Found trapezoidal ringing on node I3.NM1:int_g.
Notice from spectre at time = 3.90796 ns during transient analysis `trans-000_trans', during task `MDLControl'.
    Found trapezoidal ringing on node I3.NM1:int_g.
Notice from spectre at time = 4.2019 ns during transient analysis `trans-000_trans', during task `MDLControl'.
    Found trapezoidal ringing on node I3.NM1:int_g.

.

Notice from spectre at time = 452.672 ns during transient analysis `trans-000_trans', during task `MDLControl'.
    Found trapezoidal ringing on node I3.NM1:int_g.
        Further occurrences of this notice will be suppressed.

......9..
`AutoStop = yes'. Analysis finished at 2.5024 us.

Number of accepted tran steps =             96

Notice from spectre during transient analysis `trans-000_trans', during task `MDLControl'.
    Trapezoidal ringing is detected during tran analysis.
        Please use method=trap for better results and performance.


Maximum value achieved for any signal of each quantity: 
V: V(I3.PM2:int_s) = 428.1 mV
I: I(V0:p) = 12.94 uA
If your circuit contains signals of the same quantity that are vastly different in size (such as high voltage circuitry combined with low voltage control circuitry), you should consider specifying global option `bin_relref=yes'.

~~~~~~~~~~~~~~~~~~~~~~~~~~~~~~~~~
Post-Transient Simulation Summary
~~~~~~~~~~~~~~~~~~~~~~~~~~~~~~~~~
   -   To further speed up simulation, consider
          add ++aps on command line
~~~~~~~~~~~~~~~~~~~~~~~~~~~~~~~~~


During simulation, the CPU load for active processors is :
         0 (56.5 %)      1 (6.2 %)      
        Total: 63.7%
Initial condition solution time: CPU = 1 ms, elapsed = 796.08 us.
Intrinsic tran analysis time:    CPU = 18.997 ms, elapsed = 48.2631 ms.
Total time required for tran analysis `trans-000_trans': CPU = 21.997 ms, elapsed = 51.0252 ms.
Time accumulated: CPU = 5.65314 s, elapsed = 9.27343 s.
Peak resident memory used = 235 Mbytes.


Notice from spectre during task `MDLControl'.
    8 notices suppressed.
Warning from spectre.
    WARNING (SPECTRE-17101): The value 'psf' specified for the 'checklimitdest' option will no longer be supported in future releases. Use 'spectre -h' to see other recommended values for the 'checklimitdest' option.
    WARNING (SPECTRE-17101): The value 'psf' specified for the 'checklimitdest' option will no longer be supported in future releases. Use 'spectre -h' to see other recommended values for the 'checklimitdest' option.


***********************************************************
Transient Analysis `trans-000_trans': time = (0 s -> 20 us)
***********************************************************
DC simulation time: CPU = 1 ms, elapsed = 705.004 us.

Opening the PSFXL file ./input.raw/trans-000_trans.tran.tran ...
Important parameter values:
    start = 0 s
    outputstart = 0 s
    stop = 20 us
    step = 20 ns
    maxstep = 400 ns
    ic = all
    useprevic = no
    skipdc = no
    reltol = 1e-03
    abstol(V) = 1 uV
    abstol(I) = 1 pA
    temp = 27 C
    tnom = 27 C
    tempeffects = all
    errpreset = moderate
    method = traponly
    lteratio = 3.5
    relref = sigglobal
    cmin = 0 F
    gmin = 1 pS


Output and IC/nodeset summary:
                 save   4       (current)
                 save   8       (voltage)


Notice from spectre at time = 1.18703 ns during transient analysis `trans-000_trans', during task `MDLControl'.
    Found trapezoidal ringing on node I3.NM1:int_g.
Notice from spectre at time = 1.2137 ns during transient analysis `trans-000_trans', during task `MDLControl'.
    Found trapezoidal ringing on node I3.NM1:int_g.

...

Notice from spectre at time = 1.39725 us during transient analysis `trans-000_trans', during task `MDLControl'.
    Found trapezoidal ringing on node V3:p.

.....

Notice from spectre at time = 1.79725 us during transient analysis `trans-000_trans', during task `MDLControl'.
    Found trapezoidal ringing on node V3:p.

......

Notice from spectre at time = 2.19725 us during transient analysis `trans-000_trans', during task `MDLControl'.
    Found trapezoidal ringing on node V3:p.
        Further occurrences of this notice will be suppressed.

......9..
`AutoStop = yes'. Analysis finished at 2.50154 us.

Number of accepted tran steps =             100

Notice from spectre during transient analysis `trans-000_trans', during task `MDLControl'.
    Trapezoidal ringing is detected during tran analysis.
        Please use method=trap for better results and performance.


Maximum value achieved for any signal of each quantity: 
V: V(I3.PM2:int_s) = 426 mV
I: I(V1:p) = 40.04 uA
If your circuit contains signals of the same quantity that are vastly different in size (such as high voltage circuitry combined with low voltage control circuitry), you should consider specifying global option `bin_relref=yes'.

~~~~~~~~~~~~~~~~~~~~~~~~~~~~~~~~~
Post-Transient Simulation Summary
~~~~~~~~~~~~~~~~~~~~~~~~~~~~~~~~~
   -   To further speed up simulation, consider
          add ++aps on command line
~~~~~~~~~~~~~~~~~~~~~~~~~~~~~~~~~


During simulation, the CPU load for active processors is :
         0 (55.9 %)      1 (6.9 %)       2 (1.1 %)      
        Total: 64.0%
Initial condition solution time: CPU = 1 ms, elapsed = 751.019 us.
Intrinsic tran analysis time:    CPU = 22.995 ms, elapsed = 55.408 ms.
Total time required for tran analysis `trans-000_trans': CPU = 25.995 ms, elapsed = 58.1329 ms.
Time accumulated: CPU = 5.71813 s, elapsed = 9.37029 s.
Peak resident memory used = 235 Mbytes.


Notice from spectre during task `MDLControl'.
    2 notices suppressed.
Warning from spectre.
    WARNING (SPECTRE-17101): The value 'psf' specified for the 'checklimitdest' option will no longer be supported in future releases. Use 'spectre -h' to see other recommended values for the 'checklimitdest' option.


***********************************************************
Transient Analysis `trans-000_trans': time = (0 s -> 20 us)
***********************************************************
DC simulation time: CPU = 999 us, elapsed = 695.944 us.

Opening the PSFXL file ./input.raw/trans-000_trans.tran.tran ...
Important parameter values:
    start = 0 s
    outputstart = 0 s
    stop = 20 us
    step = 20 ns
    maxstep = 400 ns
    ic = all
    useprevic = no
    skipdc = no
    reltol = 1e-03
    abstol(V) = 1 uV
    abstol(I) = 1 pA
    temp = 27 C
    tnom = 27 C
    tempeffects = all
    errpreset = moderate
    method = traponly
    lteratio = 3.5
    relref = sigglobal
    cmin = 0 F
    gmin = 1 pS


Output and IC/nodeset summary:
                 save   4       (current)
                 save   8       (voltage)


Notice from spectre at time = 1.18739 ns during transient analysis `trans-000_trans', during task `MDLControl'.
    Found trapezoidal ringing on node I3.NM1:int_g.
Notice from spectre at time = 1.21416 ns during transient analysis `trans-000_trans', during task `MDLControl'.
    Found trapezoidal ringing on node I3.NM1:int_g.

...

Notice from spectre at time = 1.39485 us during transient analysis `trans-000_trans', during task `MDLControl'.
    Found trapezoidal ringing on node V3:p.

.....

Notice from spectre at time = 1.79485 us during transient analysis `trans-000_trans', during task `MDLControl'.
    Found trapezoidal ringing on node V3:p.

......

Notice from spectre at time = 2.19485 us during transient analysis `trans-000_trans', during task `MDLControl'.
    Found trapezoidal ringing on node V3:p.
        Further occurrences of this notice will be suppressed.

......9..
`AutoStop = yes'. Analysis finished at 2.50154 us.

Number of accepted tran steps =             100

Notice from spectre during transient analysis `trans-000_trans', during task `MDLControl'.
    Trapezoidal ringing is detected during tran analysis.
        Please use method=trap for better results and performance.


Maximum value achieved for any signal of each quantity: 
V: V(I3.PM2:int_s) = 426 mV
I: I(V1:p) = 40.07 uA
If your circuit contains signals of the same quantity that are vastly different in size (such as high voltage circuitry combined with low voltage control circuitry), you should consider specifying global option `bin_relref=yes'.

~~~~~~~~~~~~~~~~~~~~~~~~~~~~~~~~~
Post-Transient Simulation Summary
~~~~~~~~~~~~~~~~~~~~~~~~~~~~~~~~~
   -   To further speed up simulation, consider
          add ++aps on command line
~~~~~~~~~~~~~~~~~~~~~~~~~~~~~~~~~


During simulation, the CPU load for active processors is :
         0 (55.5 %)      1 (7.3 %)       2 (1.2 %)      
        Total: 64.1%
Initial condition solution time: CPU = 999 us, elapsed = 740.051 us.
Intrinsic tran analysis time:    CPU = 20.997 ms, elapsed = 59.109 ms.
Total time required for tran analysis `trans-000_trans': CPU = 23.996 ms, elapsed = 61.8069 ms.
Time accumulated: CPU = 5.76212 s, elapsed = 9.45204 s.
Peak resident memory used = 235 Mbytes.


Notice from spectre during task `MDLControl'.
    2 notices suppressed.
Warning from spectre.
    WARNING (SPECTRE-17101): The value 'psf' specified for the 'checklimitdest' option will no longer be supported in future releases. Use 'spectre -h' to see other recommended values for the 'checklimitdest' option.
    WARNING (SPECTRE-17101): The value 'psf' specified for the 'checklimitdest' option will no longer be supported in future releases. Use 'spectre -h' to see other recommended values for the 'checklimitdest' option.


***********************************************************
Transient Analysis `trans-000_trans': time = (0 s -> 20 us)
***********************************************************
DC simulation time: CPU = 0 s, elapsed = 653.028 us.

Opening the PSFXL file ./input.raw/trans-000_trans.tran.tran ...
Important parameter values:
    start = 0 s
    outputstart = 0 s
    stop = 20 us
    step = 20 ns
    maxstep = 400 ns
    ic = all
    useprevic = no
    skipdc = no
    reltol = 1e-03
    abstol(V) = 1 uV
    abstol(I) = 1 pA
    temp = 27 C
    tnom = 27 C
    tempeffects = all
    errpreset = moderate
    method = traponly
    lteratio = 3.5
    relref = sigglobal
    cmin = 0 F
    gmin = 1 pS


Output and IC/nodeset summary:
                 save   4       (current)
                 save   8       (voltage)


Notice from spectre at time = 1.18693 ns during transient analysis `trans-000_trans', during task `MDLControl'.
    Found trapezoidal ringing on node I3.NM1:int_g.
Notice from spectre at time = 1.21356 ns during transient analysis `trans-000_trans', during task `MDLControl'.
    Found trapezoidal ringing on node I3.NM1:int_g.

...

Notice from spectre at time = 1.3977 us during transient analysis `trans-000_trans', during task `MDLControl'.
    Found trapezoidal ringing on node V3:p.

.....

Notice from spectre at time = 1.7977 us during transient analysis `trans-000_trans', during task `MDLControl'.
    Found trapezoidal ringing on node V3:p.

......

Notice from spectre at time = 2.1977 us during transient analysis `trans-000_trans', during task `MDLControl'.
    Found trapezoidal ringing on node V3:p.
        Further occurrences of this notice will be suppressed.

......9..
`AutoStop = yes'. Analysis finished at 2.50154 us.

Number of accepted tran steps =             100

Notice from spectre during transient analysis `trans-000_trans', during task `MDLControl'.
    Trapezoidal ringing is detected during tran analysis.
        Please use method=trap for better results and performance.


Maximum value achieved for any signal of each quantity: 
V: V(I3.PM2:int_s) = 426 mV
I: I(V1:p) = 40.05 uA
If your circuit contains signals of the same quantity that are vastly different in size (such as high voltage circuitry combined with low voltage control circuitry), you should consider specifying global option `bin_relref=yes'.

~~~~~~~~~~~~~~~~~~~~~~~~~~~~~~~~~
Post-Transient Simulation Summary
~~~~~~~~~~~~~~~~~~~~~~~~~~~~~~~~~
   -   To further speed up simulation, consider
          add ++aps on command line
~~~~~~~~~~~~~~~~~~~~~~~~~~~~~~~~~


During simulation, the CPU load for active processors is :
         0 (55.0 %)      1 (7.8 %)       2 (1.2 %)      
        Total: 64.1%
Initial condition solution time: CPU = 0 s, elapsed = 695.944 us.
Intrinsic tran analysis time:    CPU = 20.997 ms, elapsed = 67.879 ms.
Total time required for tran analysis `trans-000_trans': CPU = 22.997 ms, elapsed = 70.534 ms.
Time accumulated: CPU = 5.82411 s, elapsed = 9.56117 s.
Peak resident memory used = 235 Mbytes.


Notice from spectre during task `MDLControl'.
    2 notices suppressed.
Warning from spectre.
    WARNING (SPECTRE-17101): The value 'psf' specified for the 'checklimitdest' option will no longer be supported in future releases. Use 'spectre -h' to see other recommended values for the 'checklimitdest' option.
    WARNING (SPECTRE-17101): The value 'psf' specified for the 'checklimitdest' option will no longer be supported in future releases. Use 'spectre -h' to see other recommended values for the 'checklimitdest' option.


***********************************************************
Transient Analysis `trans-000_trans': time = (0 s -> 20 us)
***********************************************************
DC simulation time: CPU = 0 s, elapsed = 674.009 us.

Opening the PSFXL file ./input.raw/trans-000_trans.tran.tran ...
Important parameter values:
    start = 0 s
    outputstart = 0 s
    stop = 20 us
    step = 20 ns
    maxstep = 400 ns
    ic = all
    useprevic = no
    skipdc = no
    reltol = 1e-03
    abstol(V) = 1 uV
    abstol(I) = 1 pA
    temp = 27 C
    tnom = 27 C
    tempeffects = all
    errpreset = moderate
    method = traponly
    lteratio = 3.5
    relref = sigglobal
    cmin = 0 F
    gmin = 1 pS


Output and IC/nodeset summary:
                 save   4       (current)
                 save   8       (voltage)


Notice from spectre at time = 1.87542 ns during transient analysis `trans-000_trans', during task `MDLControl'.
    Found trapezoidal ringing on node I3.NM1:int_g.
Notice from spectre at time = 1.87615 ns during transient analysis `trans-000_trans', during task `MDLControl'.
    Found trapezoidal ringing on node I3.NM1:int_g.
Notice from spectre at time = 1.89519 ns during transient analysis `trans-000_trans', during task `MDLControl'.
    Found trapezoidal ringing on node I3.NM1:int_g.

...

Notice from spectre at time = 1.30626 us during transient analysis `trans-000_trans', during task `MDLControl'.
    Found trapezoidal ringing on node V0:p.

.....

Notice from spectre at time = 1.70626 us during transient analysis `trans-000_trans', during task `MDLControl'.
    Found trapezoidal ringing on node V0:p.
        Further occurrences of this notice will be suppressed.

......9..
`AutoStop = yes'. Analysis finished at 2.50154 us.

Number of accepted tran steps =             98

Notice from spectre during transient analysis `trans-000_trans', during task `MDLControl'.
    Trapezoidal ringing is detected during tran analysis.
        Please use method=trap for better results and performance.


Maximum value achieved for any signal of each quantity: 
V: V(I3.PM2:int_s) = 426.1 mV
I: I(V1:p) = 31.61 uA
If your circuit contains signals of the same quantity that are vastly different in size (such as high voltage circuitry combined with low voltage control circuitry), you should consider specifying global option `bin_relref=yes'.

~~~~~~~~~~~~~~~~~~~~~~~~~~~~~~~~~
Post-Transient Simulation Summary
~~~~~~~~~~~~~~~~~~~~~~~~~~~~~~~~~
   -   To further speed up simulation, consider
          add ++aps on command line
~~~~~~~~~~~~~~~~~~~~~~~~~~~~~~~~~


During simulation, the CPU load for active processors is :
         0 (54.4 %)      1 (8.5 %)       2 (1.2 %)      
        Total: 64.2%
Initial condition solution time: CPU = 1 ms, elapsed = 740.051 us.
Intrinsic tran analysis time:    CPU = 21.997 ms, elapsed = 50.5991 ms.
Total time required for tran analysis `trans-000_trans': CPU = 23.997 ms, elapsed = 53.2789 ms.
Time accumulated: CPU = 5.8871 s, elapsed = 9.653 s.
Peak resident memory used = 235 Mbytes.


Notice from spectre during task `MDLControl'.
    4 notices suppressed.
Warning from spectre.
    WARNING (SPECTRE-17101): The value 'psf' specified for the 'checklimitdest' option will no longer be supported in future releases. Use 'spectre -h' to see other recommended values for the 'checklimitdest' option.


***********************************************************
Transient Analysis `trans-000_trans': time = (0 s -> 20 us)
***********************************************************
DC simulation time: CPU = 0 s, elapsed = 680.923 us.

Opening the PSFXL file ./input.raw/trans-000_trans.tran.tran ...
Important parameter values:
    start = 0 s
    outputstart = 0 s
    stop = 20 us
    step = 20 ns
    maxstep = 400 ns
    ic = all
    useprevic = no
    skipdc = no
    reltol = 1e-03
    abstol(V) = 1 uV
    abstol(I) = 1 pA
    temp = 27 C
    tnom = 27 C
    tempeffects = all
    errpreset = moderate
    method = traponly
    lteratio = 3.5
    relref = sigglobal
    cmin = 0 F
    gmin = 1 pS


Output and IC/nodeset summary:
                 save   4       (current)
                 save   8       (voltage)


Notice from spectre at time = 1.8754 ns during transient analysis `trans-000_trans', during task `MDLControl'.
    Found trapezoidal ringing on node I3.NM1:int_g.
Notice from spectre at time = 1.87612 ns during transient analysis `trans-000_trans', during task `MDLControl'.
    Found trapezoidal ringing on node I3.NM1:int_g.
Notice from spectre at time = 1.89512 ns during transient analysis `trans-000_trans', during task `MDLControl'.
    Found trapezoidal ringing on node I3.NM1:int_g.

...

Notice from spectre at time = 1.30439 us during transient analysis `trans-000_trans', during task `MDLControl'.
    Found trapezoidal ringing on node V0:p.

.....

Notice from spectre at time = 1.70439 us during transient analysis `trans-000_trans', during task `MDLControl'.
    Found trapezoidal ringing on node V0:p.
        Further occurrences of this notice will be suppressed.

......9..
`AutoStop = yes'. Analysis finished at 2.50154 us.

Number of accepted tran steps =             98

Notice from spectre during transient analysis `trans-000_trans', during task `MDLControl'.
    Trapezoidal ringing is detected during tran analysis.
        Please use method=trap for better results and performance.


Maximum value achieved for any signal of each quantity: 
V: V(I3.PM2:int_s) = 426.1 mV
I: I(V1:p) = 31.64 uA
If your circuit contains signals of the same quantity that are vastly different in size (such as high voltage circuitry combined with low voltage control circuitry), you should consider specifying global option `bin_relref=yes'.

~~~~~~~~~~~~~~~~~~~~~~~~~~~~~~~~~
Post-Transient Simulation Summary
~~~~~~~~~~~~~~~~~~~~~~~~~~~~~~~~~
   -   To further speed up simulation, consider
          add ++aps on command line
~~~~~~~~~~~~~~~~~~~~~~~~~~~~~~~~~


During simulation, the CPU load for active processors is :
         0 (54.1 %)      1 (8.8 %)       2 (1.2 %)      
        Total: 64.2%
Initial condition solution time: CPU = 0 s, elapsed = 723.839 us.
Intrinsic tran analysis time:    CPU = 22.997 ms, elapsed = 54.322 ms.
Total time required for tran analysis `trans-000_trans': CPU = 26.996 ms, elapsed = 57.0669 ms.
Time accumulated: CPU = 5.9331 s, elapsed = 9.73061 s.
Peak resident memory used = 235 Mbytes.


Notice from spectre during task `MDLControl'.
    4 notices suppressed.
Warning from spectre.
    WARNING (SPECTRE-17101): The value 'psf' specified for the 'checklimitdest' option will no longer be supported in future releases. Use 'spectre -h' to see other recommended values for the 'checklimitdest' option.
    WARNING (SPECTRE-17101): The value 'psf' specified for the 'checklimitdest' option will no longer be supported in future releases. Use 'spectre -h' to see other recommended values for the 'checklimitdest' option.


***********************************************************
Transient Analysis `trans-000_trans': time = (0 s -> 20 us)
***********************************************************
DC simulation time: CPU = 1 ms, elapsed = 707.15 us.

Opening the PSFXL file ./input.raw/trans-000_trans.tran.tran ...
Important parameter values:
    start = 0 s
    outputstart = 0 s
    stop = 20 us
    step = 20 ns
    maxstep = 400 ns
    ic = all
    useprevic = no
    skipdc = no
    reltol = 1e-03
    abstol(V) = 1 uV
    abstol(I) = 1 pA
    temp = 27 C
    tnom = 27 C
    tempeffects = all
    errpreset = moderate
    method = traponly
    lteratio = 3.5
    relref = sigglobal
    cmin = 0 F
    gmin = 1 pS


Output and IC/nodeset summary:
                 save   4       (current)
                 save   8       (voltage)


Notice from spectre at time = 1.87537 ns during transient analysis `trans-000_trans', during task `MDLControl'.
    Found trapezoidal ringing on node I3.NM1:int_g.
Notice from spectre at time = 1.8761 ns during transient analysis `trans-000_trans', during task `MDLControl'.
    Found trapezoidal ringing on node I3.NM1:int_g.
Notice from spectre at time = 1.89515 ns during transient analysis `trans-000_trans', during task `MDLControl'.
    Found trapezoidal ringing on node I3.NM1:int_g.

...

Notice from spectre at time = 1.30686 us during transient analysis `trans-000_trans', during task `MDLControl'.
    Found trapezoidal ringing on node V0:p.

.....

Notice from spectre at time = 1.70686 us during transient analysis `trans-000_trans', during task `MDLControl'.
    Found trapezoidal ringing on node V0:p.
        Further occurrences of this notice will be suppressed.

......9..
`AutoStop = yes'. Analysis finished at 2.50154 us.

Number of accepted tran steps =             98

Notice from spectre during transient analysis `trans-000_trans', during task `MDLControl'.
    Trapezoidal ringing is detected during tran analysis.
        Please use method=trap for better results and performance.


Maximum value achieved for any signal of each quantity: 
V: V(I3.PM2:int_s) = 426.1 mV
I: I(V1:p) = 31.62 uA
If your circuit contains signals of the same quantity that are vastly different in size (such as high voltage circuitry combined with low voltage control circuitry), you should consider specifying global option `bin_relref=yes'.

~~~~~~~~~~~~~~~~~~~~~~~~~~~~~~~~~
Post-Transient Simulation Summary
~~~~~~~~~~~~~~~~~~~~~~~~~~~~~~~~~
   -   To further speed up simulation, consider
          add ++aps on command line
~~~~~~~~~~~~~~~~~~~~~~~~~~~~~~~~~


During simulation, the CPU load for active processors is :
         0 (53.6 %)      1 (9.5 %)       2 (1.4 %)      
        Total: 64.5%
Initial condition solution time: CPU = 1 ms, elapsed = 752.926 us.
Intrinsic tran analysis time:    CPU = 21.997 ms, elapsed = 50.0081 ms.
Total time required for tran analysis `trans-000_trans': CPU = 24.997 ms, elapsed = 52.7289 ms.
Time accumulated: CPU = 5.99609 s, elapsed = 9.82165 s.
Peak resident memory used = 235 Mbytes.


Notice from spectre during task `MDLControl'.
    4 notices suppressed.
Warning from spectre.
    WARNING (SPECTRE-17101): The value 'psf' specified for the 'checklimitdest' option will no longer be supported in future releases. Use 'spectre -h' to see other recommended values for the 'checklimitdest' option.
    WARNING (SPECTRE-17101): The value 'psf' specified for the 'checklimitdest' option will no longer be supported in future releases. Use 'spectre -h' to see other recommended values for the 'checklimitdest' option.


***********************************************************
Transient Analysis `trans-000_trans': time = (0 s -> 20 us)
***********************************************************
DC simulation time: CPU = 1 ms, elapsed = 702.858 us.

Opening the PSFXL file ./input.raw/trans-000_trans.tran.tran ...
Important parameter values:
    start = 0 s
    outputstart = 0 s
    stop = 20 us
    step = 20 ns
    maxstep = 400 ns
    ic = all
    useprevic = no
    skipdc = no
    reltol = 1e-03
    abstol(V) = 1 uV
    abstol(I) = 1 pA
    temp = 27 C
    tnom = 27 C
    tempeffects = all
    errpreset = moderate
    method = traponly
    lteratio = 3.5
    relref = sigglobal
    cmin = 0 F
    gmin = 1 pS


Output and IC/nodeset summary:
                 save   4       (current)
                 save   8       (voltage)


Notice from spectre at time = 1.91677 ns during transient analysis `trans-000_trans', during task `MDLControl'.
    Found trapezoidal ringing on node I3.NM1:int_g.
Notice from spectre at time = 1.98528 ns during transient analysis `trans-000_trans', during task `MDLControl'.
    Found trapezoidal ringing on node I3.NM1:int_g.

.

Notice from spectre at time = 272.91 ns during transient analysis `trans-000_trans', during task `MDLControl'.
    Found trapezoidal ringing on node I3.NM1:int_g.
Notice from spectre at time = 455.239 ns during transient analysis `trans-000_trans', during task `MDLControl'.
    Found trapezoidal ringing on node I3.NM1:int_g.

..

Notice from spectre at time = 777.537 ns during transient analysis `trans-000_trans', during task `MDLControl'.
    Found trapezoidal ringing on node I3.NM1:int_g.
        Further occurrences of this notice will be suppressed.

......9..
`AutoStop = yes'. Analysis finished at 2.50159 us.

Number of accepted tran steps =             97

Notice from spectre during transient analysis `trans-000_trans', during task `MDLControl'.
    Trapezoidal ringing is detected during tran analysis.
        Please use method=trap for better results and performance.


Maximum value achieved for any signal of each quantity: 
V: V(I3.PM2:int_s) = 426.2 mV
I: I(V1:p) = 29.27 uA
If your circuit contains signals of the same quantity that are vastly different in size (such as high voltage circuitry combined with low voltage control circuitry), you should consider specifying global option `bin_relref=yes'.

~~~~~~~~~~~~~~~~~~~~~~~~~~~~~~~~~
Post-Transient Simulation Summary
~~~~~~~~~~~~~~~~~~~~~~~~~~~~~~~~~
   -   To further speed up simulation, consider
          add ++aps on command line
~~~~~~~~~~~~~~~~~~~~~~~~~~~~~~~~~


During simulation, the CPU load for active processors is :
         0 (53.2 %)      1 (10.1 %)      2 (1.3 %)      
        Total: 64.7%
Initial condition solution time: CPU = 1 ms, elapsed = 746.965 us.
Intrinsic tran analysis time:    CPU = 25.996 ms, elapsed = 55.0499 ms.
Total time required for tran analysis `trans-000_trans': CPU = 28.996 ms, elapsed = 57.786 ms.
Time accumulated: CPU = 6.06408 s, elapsed = 9.91776 s.
Peak resident memory used = 235 Mbytes.


Notice from spectre during task `MDLControl'.
    7 notices suppressed.
Warning from spectre.
    WARNING (SPECTRE-17101): The value 'psf' specified for the 'checklimitdest' option will no longer be supported in future releases. Use 'spectre -h' to see other recommended values for the 'checklimitdest' option.


***********************************************************
Transient Analysis `trans-000_trans': time = (0 s -> 20 us)
***********************************************************
DC simulation time: CPU = 1 ms, elapsed = 705.004 us.

Opening the PSFXL file ./input.raw/trans-000_trans.tran.tran ...
Important parameter values:
    start = 0 s
    outputstart = 0 s
    stop = 20 us
    step = 20 ns
    maxstep = 400 ns
    ic = all
    useprevic = no
    skipdc = no
    reltol = 1e-03
    abstol(V) = 1 uV
    abstol(I) = 1 pA
    temp = 27 C
    tnom = 27 C
    tempeffects = all
    errpreset = moderate
    method = traponly
    lteratio = 3.5
    relref = sigglobal
    cmin = 0 F
    gmin = 1 pS


Output and IC/nodeset summary:
                 save   4       (current)
                 save   8       (voltage)


Notice from spectre at time = 1.91661 ns during transient analysis `trans-000_trans', during task `MDLControl'.
    Found trapezoidal ringing on node I3.NM1:int_g.
Notice from spectre at time = 1.98489 ns during transient analysis `trans-000_trans', during task `MDLControl'.
    Found trapezoidal ringing on node I3.NM1:int_g.

.

Notice from spectre at time = 272.093 ns during transient analysis `trans-000_trans', during task `MDLControl'.
    Found trapezoidal ringing on node I3.NM1:int_g.
Notice from spectre at time = 453.88 ns during transient analysis `trans-000_trans', during task `MDLControl'.
    Found trapezoidal ringing on node I3.NM1:int_g.

..

Notice from spectre at time = 775.099 ns during transient analysis `trans-000_trans', during task `MDLControl'.
    Found trapezoidal ringing on node I3.NM1:int_g.
        Further occurrences of this notice will be suppressed.

......9..
`AutoStop = yes'. Analysis finished at 2.50159 us.

Number of accepted tran steps =             97

Notice from spectre during transient analysis `trans-000_trans', during task `MDLControl'.
    Trapezoidal ringing is detected during tran analysis.
        Please use method=trap for better results and performance.


Maximum value achieved for any signal of each quantity: 
V: V(I3.PM2:int_s) = 426.2 mV
I: I(V1:p) = 29.3 uA
If your circuit contains signals of the same quantity that are vastly different in size (such as high voltage circuitry combined with low voltage control circuitry), you should consider specifying global option `bin_relref=yes'.

~~~~~~~~~~~~~~~~~~~~~~~~~~~~~~~~~
Post-Transient Simulation Summary
~~~~~~~~~~~~~~~~~~~~~~~~~~~~~~~~~
   -   To further speed up simulation, consider
          add ++aps on command line
~~~~~~~~~~~~~~~~~~~~~~~~~~~~~~~~~


During simulation, the CPU load for active processors is :
         0 (52.8 %)      1 (10.5 %)      2 (1.3 %)      
        Total: 64.7%
Initial condition solution time: CPU = 1 ms, elapsed = 749.111 us.
Intrinsic tran analysis time:    CPU = 23.996 ms, elapsed = 49.5529 ms.
Total time required for tran analysis `trans-000_trans': CPU = 25.996 ms, elapsed = 52.233 ms.
Time accumulated: CPU = 6.11007 s, elapsed = 9.99022 s.
Peak resident memory used = 235 Mbytes.


Notice from spectre during task `MDLControl'.
    7 notices suppressed.
Warning from spectre.
    WARNING (SPECTRE-17101): The value 'psf' specified for the 'checklimitdest' option will no longer be supported in future releases. Use 'spectre -h' to see other recommended values for the 'checklimitdest' option.
    WARNING (SPECTRE-17101): The value 'psf' specified for the 'checklimitdest' option will no longer be supported in future releases. Use 'spectre -h' to see other recommended values for the 'checklimitdest' option.


***********************************************************
Transient Analysis `trans-000_trans': time = (0 s -> 20 us)
***********************************************************
DC simulation time: CPU = 1 ms, elapsed = 687.122 us.

Opening the PSFXL file ./input.raw/trans-000_trans.tran.tran ...
Important parameter values:
    start = 0 s
    outputstart = 0 s
    stop = 20 us
    step = 20 ns
    maxstep = 400 ns
    ic = all
    useprevic = no
    skipdc = no
    reltol = 1e-03
    abstol(V) = 1 uV
    abstol(I) = 1 pA
    temp = 27 C
    tnom = 27 C
    tempeffects = all
    errpreset = moderate
    method = traponly
    lteratio = 3.5
    relref = sigglobal
    cmin = 0 F
    gmin = 1 pS


Output and IC/nodeset summary:
                 save   4       (current)
                 save   8       (voltage)


Notice from spectre at time = 1.91635 ns during transient analysis `trans-000_trans', during task `MDLControl'.
    Found trapezoidal ringing on node I3.NM1:int_g.
Notice from spectre at time = 1.98406 ns during transient analysis `trans-000_trans', during task `MDLControl'.
    Found trapezoidal ringing on node I3.NM1:int_g.

.

Notice from spectre at time = 271.037 ns during transient analysis `trans-000_trans', during task `MDLControl'.
    Found trapezoidal ringing on node I3.NM1:int_g.
Notice from spectre at time = 452.148 ns during transient analysis `trans-000_trans', during task `MDLControl'.
    Found trapezoidal ringing on node I3.NM1:int_g.

..

Notice from spectre at time = 772.014 ns during transient analysis `trans-000_trans', during task `MDLControl'.
    Found trapezoidal ringing on node I3.NM1:int_g.
        Further occurrences of this notice will be suppressed.

......9..
`AutoStop = yes'. Analysis finished at 2.50159 us.

Number of accepted tran steps =             97

Notice from spectre during transient analysis `trans-000_trans', during task `MDLControl'.
    Trapezoidal ringing is detected during tran analysis.
        Please use method=trap for better results and performance.


Maximum value achieved for any signal of each quantity: 
V: V(I3.PM2:int_s) = 426.2 mV
I: I(V1:p) = 29.28 uA
If your circuit contains signals of the same quantity that are vastly different in size (such as high voltage circuitry combined with low voltage control circuitry), you should consider specifying global option `bin_relref=yes'.

~~~~~~~~~~~~~~~~~~~~~~~~~~~~~~~~~
Post-Transient Simulation Summary
~~~~~~~~~~~~~~~~~~~~~~~~~~~~~~~~~
   -   To further speed up simulation, consider
          add ++aps on command line
~~~~~~~~~~~~~~~~~~~~~~~~~~~~~~~~~


During simulation, the CPU load for active processors is :
         0 (52.4 %)      1 (11.0 %)      2 (1.5 %)      
        Total: 65.3%
Initial condition solution time: CPU = 1 ms, elapsed = 739.098 us.
Intrinsic tran analysis time:    CPU = 21.996 ms, elapsed = 49.0379 ms.
Total time required for tran analysis `trans-000_trans': CPU = 24.995 ms, elapsed = 51.7559 ms.
Time accumulated: CPU = 6.17406 s, elapsed = 10.0811 s.
Peak resident memory used = 235 Mbytes.


Notice from spectre during task `MDLControl'.
    7 notices suppressed.
Warning from spectre.
    WARNING (SPECTRE-17101): The value 'psf' specified for the 'checklimitdest' option will no longer be supported in future releases. Use 'spectre -h' to see other recommended values for the 'checklimitdest' option.
    WARNING (SPECTRE-17101): The value 'psf' specified for the 'checklimitdest' option will no longer be supported in future releases. Use 'spectre -h' to see other recommended values for the 'checklimitdest' option.


***********************************************************
Transient Analysis `trans-000_trans': time = (0 s -> 20 us)
***********************************************************
DC simulation time: CPU = 999 us, elapsed = 710.011 us.

Opening the PSFXL file ./input.raw/trans-000_trans.tran.tran ...
Important parameter values:
    start = 0 s
    outputstart = 0 s
    stop = 20 us
    step = 20 ns
    maxstep = 400 ns
    ic = all
    useprevic = no
    skipdc = no
    reltol = 1e-03
    abstol(V) = 1 uV
    abstol(I) = 1 pA
    temp = 27 C
    tnom = 27 C
    tempeffects = all
    errpreset = moderate
    method = traponly
    lteratio = 3.5
    relref = sigglobal
    cmin = 0 F
    gmin = 1 pS


Output and IC/nodeset summary:
                 save   4       (current)
                 save   8       (voltage)


Notice from spectre at time = 1.89643 ns during transient analysis `trans-000_trans', during task `MDLControl'.
    Found trapezoidal ringing on node I3.NM1:int_g.

..

Notice from spectre at time = 1.10444 us during transient analysis `trans-000_trans', during task `MDLControl'.
    Found trapezoidal ringing on node V0:p.

....

Notice from spectre at time = 1.50444 us during transient analysis `trans-000_trans', during task `MDLControl'.
    Found trapezoidal ringing on node V0:p.

.....

Notice from spectre at time = 1.90444 us during transient analysis `trans-000_trans', during task `MDLControl'.
    Found trapezoidal ringing on node V0:p.

......9

Notice from spectre at time = 2.20222 us during transient analysis `trans-000_trans', during task `MDLControl'.
    Found trapezoidal ringing on node V0:p.
        Further occurrences of this notice will be suppressed.

......9..
`AutoStop = yes'. Analysis finished at 2.50168 us.

Number of accepted tran steps =             100

Notice from spectre during transient analysis `trans-000_trans', during task `MDLControl'.
    Trapezoidal ringing is detected during tran analysis.
        Please use method=trap for better results and performance.


Maximum value achieved for any signal of each quantity: 
V: V(I3.PM2:int_s) = 426.4 mV
I: I(V1:p) = 27.34 uA
If your circuit contains signals of the same quantity that are vastly different in size (such as high voltage circuitry combined with low voltage control circuitry), you should consider specifying global option `bin_relref=yes'.

~~~~~~~~~~~~~~~~~~~~~~~~~~~~~~~~~
Post-Transient Simulation Summary
~~~~~~~~~~~~~~~~~~~~~~~~~~~~~~~~~
   -   To further speed up simulation, consider
          add ++aps on command line
~~~~~~~~~~~~~~~~~~~~~~~~~~~~~~~~~


During simulation, the CPU load for active processors is :
         0 (51.9 %)      1 (11.6 %)      2 (1.5 %)      
        Total: 65.4%
Initial condition solution time: CPU = 999 us, elapsed = 754.833 us.
Intrinsic tran analysis time:    CPU = 21.997 ms, elapsed = 49.4311 ms.
Total time required for tran analysis `trans-000_trans': CPU = 23.996 ms, elapsed = 52.1369 ms.
Time accumulated: CPU = 6.23705 s, elapsed = 10.172 s.
Peak resident memory used = 235 Mbytes.


Notice from spectre during task `MDLControl'.
    3 notices suppressed.
Warning from spectre.
    WARNING (SPECTRE-17101): The value 'psf' specified for the 'checklimitdest' option will no longer be supported in future releases. Use 'spectre -h' to see other recommended values for the 'checklimitdest' option.


***********************************************************
Transient Analysis `trans-000_trans': time = (0 s -> 20 us)
***********************************************************
DC simulation time: CPU = 0 s, elapsed = 685.93 us.

Opening the PSFXL file ./input.raw/trans-000_trans.tran.tran ...
Important parameter values:
    start = 0 s
    outputstart = 0 s
    stop = 20 us
    step = 20 ns
    maxstep = 400 ns
    ic = all
    useprevic = no
    skipdc = no
    reltol = 1e-03
    abstol(V) = 1 uV
    abstol(I) = 1 pA
    temp = 27 C
    tnom = 27 C
    tempeffects = all
    errpreset = moderate
    method = traponly
    lteratio = 3.5
    relref = sigglobal
    cmin = 0 F
    gmin = 1 pS


Output and IC/nodeset summary:
                 save   4       (current)
                 save   8       (voltage)


Notice from spectre at time = 1.89647 ns during transient analysis `trans-000_trans', during task `MDLControl'.
    Found trapezoidal ringing on node I3.NM1:int_g.

..

Notice from spectre at time = 1.10467 us during transient analysis `trans-000_trans', during task `MDLControl'.
    Found trapezoidal ringing on node V0:p.

....

Notice from spectre at time = 1.50467 us during transient analysis `trans-000_trans', during task `MDLControl'.
    Found trapezoidal ringing on node V0:p.

.....

Notice from spectre at time = 1.90467 us during transient analysis `trans-000_trans', during task `MDLControl'.
    Found trapezoidal ringing on node V0:p.

......9

Notice from spectre at time = 2.20234 us during transient analysis `trans-000_trans', during task `MDLControl'.
    Found trapezoidal ringing on node V0:p.
        Further occurrences of this notice will be suppressed.

......9..
`AutoStop = yes'. Analysis finished at 2.50168 us.

Number of accepted tran steps =             100

Notice from spectre during transient analysis `trans-000_trans', during task `MDLControl'.
    Trapezoidal ringing is detected during tran analysis.
        Please use method=trap for better results and performance.


Maximum value achieved for any signal of each quantity: 
V: V(I3.PM2:int_s) = 426.4 mV
I: I(V1:p) = 27.36 uA
If your circuit contains signals of the same quantity that are vastly different in size (such as high voltage circuitry combined with low voltage control circuitry), you should consider specifying global option `bin_relref=yes'.

~~~~~~~~~~~~~~~~~~~~~~~~~~~~~~~~~
Post-Transient Simulation Summary
~~~~~~~~~~~~~~~~~~~~~~~~~~~~~~~~~
   -   To further speed up simulation, consider
          add ++aps on command line
~~~~~~~~~~~~~~~~~~~~~~~~~~~~~~~~~


During simulation, the CPU load for active processors is :
         0 (51.5 %)      1 (12.0 %)      2 (1.6 %)      
        Total: 65.4%
Initial condition solution time: CPU = 0 s, elapsed = 729.084 us.
Intrinsic tran analysis time:    CPU = 23.996 ms, elapsed = 54.44 ms.
Total time required for tran analysis `trans-000_trans': CPU = 26.996 ms, elapsed = 57.163 ms.
Time accumulated: CPU = 6.28404 s, elapsed = 10.2497 s.
Peak resident memory used = 235 Mbytes.


Notice from spectre during task `MDLControl'.
    3 notices suppressed.
Warning from spectre.
    WARNING (SPECTRE-17101): The value 'psf' specified for the 'checklimitdest' option will no longer be supported in future releases. Use 'spectre -h' to see other recommended values for the 'checklimitdest' option.
    WARNING (SPECTRE-17101): The value 'psf' specified for the 'checklimitdest' option will no longer be supported in future releases. Use 'spectre -h' to see other recommended values for the 'checklimitdest' option.


***********************************************************
Transient Analysis `trans-000_trans': time = (0 s -> 20 us)
***********************************************************
DC simulation time: CPU = 1 ms, elapsed = 704.05 us.

Opening the PSFXL file ./input.raw/trans-000_trans.tran.tran ...
Important parameter values:
    start = 0 s
    outputstart = 0 s
    stop = 20 us
    step = 20 ns
    maxstep = 400 ns
    ic = all
    useprevic = no
    skipdc = no
    reltol = 1e-03
    abstol(V) = 1 uV
    abstol(I) = 1 pA
    temp = 27 C
    tnom = 27 C
    tempeffects = all
    errpreset = moderate
    method = traponly
    lteratio = 3.5
    relref = sigglobal
    cmin = 0 F
    gmin = 1 pS


Output and IC/nodeset summary:
                 save   4       (current)
                 save   8       (voltage)


Notice from spectre at time = 1.89645 ns during transient analysis `trans-000_trans', during task `MDLControl'.
    Found trapezoidal ringing on node I3.NM1:int_g.

..

Notice from spectre at time = 1.02142 us during transient analysis `trans-000_trans', during task `MDLControl'.
    Found trapezoidal ringing on node V0:p.

....

Notice from spectre at time = 1.42142 us during transient analysis `trans-000_trans', during task `MDLControl'.
    Found trapezoidal ringing on node V0:p.

.....

Notice from spectre at time = 1.82142 us during transient analysis `trans-000_trans', during task `MDLControl'.
    Found trapezoidal ringing on node V0:p.

......

Notice from spectre at time = 2.22142 us during transient analysis `trans-000_trans', during task `MDLControl'.
    Found trapezoidal ringing on node V0:p.
        Further occurrences of this notice will be suppressed.

......9..
`AutoStop = yes'. Analysis finished at 2.50168 us.

Number of accepted tran steps =             100

Notice from spectre during transient analysis `trans-000_trans', during task `MDLControl'.
    Trapezoidal ringing is detected during tran analysis.
        Please use method=trap for better results and performance.


Maximum value achieved for any signal of each quantity: 
V: V(I3.PM2:int_s) = 426.4 mV
I: I(V1:p) = 27.34 uA
If your circuit contains signals of the same quantity that are vastly different in size (such as high voltage circuitry combined with low voltage control circuitry), you should consider specifying global option `bin_relref=yes'.

~~~~~~~~~~~~~~~~~~~~~~~~~~~~~~~~~
Post-Transient Simulation Summary
~~~~~~~~~~~~~~~~~~~~~~~~~~~~~~~~~
   -   To further speed up simulation, consider
          add ++aps on command line
~~~~~~~~~~~~~~~~~~~~~~~~~~~~~~~~~


During simulation, the CPU load for active processors is :
         0 (51.1 %)      1 (12.5 %)      2 (1.6 %)      
        Total: 65.4%
Initial condition solution time: CPU = 1 ms, elapsed = 747.919 us.
Intrinsic tran analysis time:    CPU = 22.997 ms, elapsed = 50.1261 ms.
Total time required for tran analysis `trans-000_trans': CPU = 24.996 ms, elapsed = 52.83 ms.
Time accumulated: CPU = 6.34703 s, elapsed = 10.3407 s.
Peak resident memory used = 235 Mbytes.


Notice from spectre during task `MDLControl'.
    3 notices suppressed.
Warning from spectre.
    WARNING (SPECTRE-17101): The value 'psf' specified for the 'checklimitdest' option will no longer be supported in future releases. Use 'spectre -h' to see other recommended values for the 'checklimitdest' option.
    WARNING (SPECTRE-17101): The value 'psf' specified for the 'checklimitdest' option will no longer be supported in future releases. Use 'spectre -h' to see other recommended values for the 'checklimitdest' option.


***********************************************************
Transient Analysis `trans-000_trans': time = (0 s -> 20 us)
***********************************************************
DC simulation time: CPU = 0 s, elapsed = 679.016 us.

Opening the PSFXL file ./input.raw/trans-000_trans.tran.tran ...
Important parameter values:
    start = 0 s
    outputstart = 0 s
    stop = 20 us
    step = 20 ns
    maxstep = 400 ns
    ic = all
    useprevic = no
    skipdc = no
    reltol = 1e-03
    abstol(V) = 1 uV
    abstol(I) = 1 pA
    temp = 27 C
    tnom = 27 C
    tempeffects = all
    errpreset = moderate
    method = traponly
    lteratio = 3.5
    relref = sigglobal
    cmin = 0 F
    gmin = 1 pS


Output and IC/nodeset summary:
                 save   4       (current)
                 save   8       (voltage)

.

Notice from spectre at time = 636.083 ns during transient analysis `trans-000_trans', during task `MDLControl'.
    Found trapezoidal ringing on node V2:p.

..

Notice from spectre at time = 1.03608 us during transient analysis `trans-000_trans', during task `MDLControl'.
    Found trapezoidal ringing on node V2:p.

....

Notice from spectre at time = 1.43608 us during transient analysis `trans-000_trans', during task `MDLControl'.
    Found trapezoidal ringing on node V2:p.

.....

Notice from spectre at time = 1.83608 us during transient analysis `trans-000_trans', during task `MDLControl'.
    Found trapezoidal ringing on node V2:p.

......

Notice from spectre at time = 2.16804 us during transient analysis `trans-000_trans', during task `MDLControl'.
[...]
                 save   8       (voltage)

..

Notice from spectre at time = 947.421 ns during transient analysis `trans-000_trans', during task `MDLControl'.
    Found trapezoidal ringing on node V0:p.

...

Notice from spectre at time = 1.34742 us during transient analysis `trans-000_trans', during task `MDLControl'.
    Found trapezoidal ringing on node V0:p.

.....

Notice from spectre at time = 1.74742 us during transient analysis `trans-000_trans', during task `MDLControl'.
    Found trapezoidal ringing on node V0:p.

......

Notice from spectre at time = 2.14742 us during transient analysis `trans-000_trans', during task `MDLControl'.
    Found trapezoidal ringing on node V0:p.

......9.

Notice from spectre at time = 2.5 us during transient analysis `trans-000_trans', during task `MDLControl'.
    Found trapezoidal ringing on node V0:p.
        Further occurrences of this notice will be suppressed.

......9..
`AutoStop = yes'. Analysis finished at 2.50177 us.

Number of accepted tran steps =             97

Notice from spectre during transient analysis `trans-000_trans', during task `MDLControl'.
    Trapezoidal ringing is detected during tran analysis.
        Please use method=trap for better results and performance.


Maximum value achieved for any signal of each quantity: 
V: V(I3.PM2:int_s) = 426.4 mV
I: I(V1:p) = 25.07 uA
If your circuit contains signals of the same quantity that are vastly different in size (such as high voltage circuitry combined with low voltage control circuitry), you should consider specifying global option `bin_relref=yes'.

~~~~~~~~~~~~~~~~~~~~~~~~~~~~~~~~~
Post-Transient Simulation Summary
~~~~~~~~~~~~~~~~~~~~~~~~~~~~~~~~~
   -   To further speed up simulation, consider
          add ++aps on command line
~~~~~~~~~~~~~~~~~~~~~~~~~~~~~~~~~


During simulation, the CPU load for active processors is :
         0 (37.2 %)      1 (28.0 %)      2 (2.7 %)      
        Total: 68.3%
Initial condition solution time: CPU = 1 ms, elapsed = 718.117 us.
Intrinsic tran analysis time:    CPU = 19.997 ms, elapsed = 49.638 ms.
Total time required for tran analysis `trans-000_trans': CPU = 21.997 ms, elapsed = 52.3179 ms.
Time accumulated: CPU = 9.2006 s, elapsed = 14.893 s.
Peak resident memory used = 235 Mbytes.


Notice from spectre during task `MDLControl'.
    2 notices suppressed.
Warning from spectre.
    WARNING (SPECTRE-17101): The value 'psf' specified for the 'checklimitdest' option will no longer be supported in future releases. Use 'spectre -h' to see other recommended values for the 'checklimitdest' option.
    WARNING (SPECTRE-17101): The value 'psf' specified for the 'checklimitdest' option will no longer be supported in future releases. Use 'spectre -h' to see other recommended values for the 'checklimitdest' option.


***********************************************************
Transient Analysis `trans-000_trans': time = (0 s -> 20 us)
***********************************************************
DC simulation time: CPU = 0 s, elapsed = 669.956 us.

Opening the PSFXL file ./input.raw/trans-000_trans.tran.tran ...
Important parameter values:
    start = 0 s
    outputstart = 0 s
    stop = 20 us
    step = 20 ns
    maxstep = 400 ns
    ic = all
    useprevic = no
    skipdc = no
    reltol = 1e-03
    abstol(V) = 1 uV
    abstol(I) = 1 pA
    temp = 27 C
    tnom = 27 C
    tempeffects = all
    errpreset = moderate
    method = traponly
    lteratio = 3.5
    relref = sigglobal
    cmin = 0 F
    gmin = 1 pS


Output and IC/nodeset summary:
                 save   4       (current)
                 save   8       (voltage)

..

Notice from spectre at time = 947.421 ns during transient analysis `trans-000_trans', during task `MDLControl'.
    Found trapezoidal ringing on node V0:p.

...

Notice from spectre at time = 1.34742 us during transient analysis `trans-000_trans', during task `MDLControl'.
    Found trapezoidal ringing on node V0:p.

.....

Notice from spectre at time = 1.74742 us during transient analysis `trans-000_trans', during task `MDLControl'.
    Found trapezoidal ringing on node V0:p.

......

Notice from spectre at time = 2.14742 us during transient analysis `trans-000_trans', during task `MDLControl'.
    Found trapezoidal ringing on node V0:p.

......9.

Notice from spectre at time = 2.5 us during transient analysis `trans-000_trans', during task `MDLControl'.
    Found trapezoidal ringing on node V0:p.
        Further occurrences of this notice will be suppressed.

......9..
`AutoStop = yes'. Analysis finished at 2.50177 us.

Number of accepted tran steps =             97

Notice from spectre during transient analysis `trans-000_trans', during task `MDLControl'.
    Trapezoidal ringing is detected during tran analysis.
        Please use method=trap for better results and performance.


Maximum value achieved for any signal of each quantity: 
V: V(I3.PM2:int_s) = 426.4 mV
I: I(V1:p) = 25.07 uA
If your circuit contains signals of the same quantity that are vastly different in size (such as high voltage circuitry combined with low voltage control circuitry), you should consider specifying global option `bin_relref=yes'.

~~~~~~~~~~~~~~~~~~~~~~~~~~~~~~~~~
Post-Transient Simulation Summary
~~~~~~~~~~~~~~~~~~~~~~~~~~~~~~~~~
   -   To further speed up simulation, consider
          add ++aps on command line
~~~~~~~~~~~~~~~~~~~~~~~~~~~~~~~~~


During simulation, the CPU load for active processors is :
         0 (36.9 %)      1 (28.3 %)      2 (2.7 %)      
        Total: 68.3%
Initial condition solution time: CPU = 0 s, elapsed = 712.872 us.
Intrinsic tran analysis time:    CPU = 23.996 ms, elapsed = 54.7509 ms.
Total time required for tran analysis `trans-000_trans': CPU = 25.995 ms, elapsed = 57.43 ms.
Time accumulated: CPU = 9.26559 s, elapsed = 14.9891 s.
Peak resident memory used = 235 Mbytes.


Notice from spectre during task `MDLControl'.
    2 notices suppressed.
Warning from spectre.
    WARNING (SPECTRE-17101): The value 'psf' specified for the 'checklimitdest' option will no longer be supported in future releases. Use 'spectre -h' to see other recommended values for the 'checklimitdest' option.


***********************************************************
Transient Analysis `trans-000_trans': time = (0 s -> 20 us)
***********************************************************
DC simulation time: CPU = 0 s, elapsed = 699.997 us.

Opening the PSFXL file ./input.raw/trans-000_trans.tran.tran ...
Important parameter values:
    start = 0 s
    outputstart = 0 s
    stop = 20 us
    step = 20 ns
    maxstep = 400 ns
    ic = all
    useprevic = no
    skipdc = no
    reltol = 1e-03
    abstol(V) = 1 uV
    abstol(I) = 1 pA
    temp = 27 C
    tnom = 27 C
    tempeffects = all
    errpreset = moderate
    method = traponly
    lteratio = 3.5
    relref = sigglobal
    cmin = 0 F
    gmin = 1 pS


Output and IC/nodeset summary:
                 save   4       (current)
                 save   8       (voltage)

..

Notice from spectre at time = 947.084 ns during transient analysis `trans-000_trans', during task `MDLControl'.
    Found trapezoidal ringing on node V0:p.

...

Notice from spectre at time = 1.34708 us during transient analysis `trans-000_trans', during task `MDLControl'.
    Found trapezoidal ringing on node V0:p.

.....

Notice from spectre at time = 1.74708 us during transient analysis `trans-000_trans', during task `MDLControl'.
    Found trapezoidal ringing on node V0:p.

......

Notice from spectre at time = 2.14708 us during transient analysis `trans-000_trans', during task `MDLControl'.
    Found trapezoidal ringing on node V0:p.

......9.

Notice from spectre at time = 2.5 us during transient analysis `trans-000_trans', during task `MDLControl'.
    Found trapezoidal ringing on node V0:p.
        Further occurrences of this notice will be suppressed.

......9..
`AutoStop = yes'. Analysis finished at 2.50177 us.

Number of accepted tran steps =             97

Notice from spectre during transient analysis `trans-000_trans', during task `MDLControl'.
    Trapezoidal ringing is detected during tran analysis.
        Please use method=trap for better results and performance.


Maximum value achieved for any signal of each quantity: 
V: V(I3.PM2:int_s) = 426.4 mV
I: I(V1:p) = 25.1 uA
If your circuit contains signals of the same quantity that are vastly different in size (such as high voltage circuitry combined with low voltage control circuitry), you should consider specifying global option `bin_relref=yes'.

~~~~~~~~~~~~~~~~~~~~~~~~~~~~~~~~~
Post-Transient Simulation Summary
~~~~~~~~~~~~~~~~~~~~~~~~~~~~~~~~~
   -   To further speed up simulation, consider
          add ++aps on command line
~~~~~~~~~~~~~~~~~~~~~~~~~~~~~~~~~


During simulation, the CPU load for active processors is :
         0 (36.8 %)      1 (28.5 %)      2 (2.8 %)      
        Total: 68.4%
Initial condition solution time: CPU = 0 s, elapsed = 779.867 us.
Intrinsic tran analysis time:    CPU = 24.996 ms, elapsed = 55.202 ms.
Total time required for tran analysis `trans-000_trans': CPU = 28.996 ms, elapsed = 58.1179 ms.
Time accumulated: CPU = 9.31358 s, elapsed = 15.0676 s.
Peak resident memory used = 235 Mbytes.


Notice from spectre during task `MDLControl'.
    2 notices suppressed.
Warning from spectre.
    WARNING (SPECTRE-17101): The value 'psf' specified for the 'checklimitdest' option will no longer be supported in future releases. Use 'spectre -h' to see other recommended values for the 'checklimitdest' option.
    WARNING (SPECTRE-17101): The value 'psf' specified for the 'checklimitdest' option will no longer be supported in future releases. Use 'spectre -h' to see other recommended values for the 'checklimitdest' option.


***********************************************************
Transient Analysis `trans-000_trans': time = (0 s -> 20 us)
***********************************************************
DC simulation time: CPU = 1 ms, elapsed = 705.957 us.

Opening the PSFXL file ./input.raw/trans-000_trans.tran.tran ...
Important parameter values:
    start = 0 s
    outputstart = 0 s
    stop = 20 us
    step = 20 ns
    maxstep = 400 ns
    ic = all
    useprevic = no
    skipdc = no
    reltol = 1e-03
    abstol(V) = 1 uV
    abstol(I) = 1 pA
    temp = 27 C
    tnom = 27 C
    tempeffects = all
    errpreset = moderate
    method = traponly
    lteratio = 3.5
    relref = sigglobal
    cmin = 0 F
    gmin = 1 pS


Output and IC/nodeset summary:
                 save   4       (current)
                 save   8       (voltage)

..

Notice from spectre at time = 948.707 ns during transient analysis `trans-000_trans', during task `MDLControl'.
    Found trapezoidal ringing on node V0:p.

...

Notice from spectre at time = 1.34871 us during transient analysis `trans-000_trans', during task `MDLControl'.
    Found trapezoidal ringing on node V0:p.

.....

Notice from spectre at time = 1.74871 us during transient analysis `trans-000_trans', during task `MDLControl'.
    Found trapezoidal ringing on node V0:p.

......

Notice from spectre at time = 2.14871 us during transient analysis `trans-000_trans', during task `MDLControl'.
    Found trapezoidal ringing on node V0:p.

......9.

Notice from spectre at time = 2.5 us during transient analysis `trans-000_trans', during task `MDLControl'.
    Found trapezoidal ringing on node V0:p.
        Further occurrences of this notice will be suppressed.

......9..
`AutoStop = yes'. Analysis finished at 2.50177 us.

Number of accepted tran steps =             97

Notice from spectre during transient analysis `trans-000_trans', during task `MDLControl'.
    Trapezoidal ringing is detected during tran analysis.
        Please use method=trap for better results and performance.


Maximum value achieved for any signal of each quantity: 
V: V(I3.PM2:int_s) = 426.4 mV
I: I(V1:p) = 25.08 uA
If your circuit contains signals of the same quantity that are vastly different in size (such as high voltage circuitry combined with low voltage control circuitry), you should consider specifying global option `bin_relref=yes'.

~~~~~~~~~~~~~~~~~~~~~~~~~~~~~~~~~
Post-Transient Simulation Summary
~~~~~~~~~~~~~~~~~~~~~~~~~~~~~~~~~
   -   To further speed up simulation, consider
          add ++aps on command line
~~~~~~~~~~~~~~~~~~~~~~~~~~~~~~~~~


During simulation, the CPU load for active processors is :
         0 (36.6 %)      1 (28.7 %)      2 (2.7 %)      
        Total: 68.5%
Initial condition solution time: CPU = 1 ms, elapsed = 751.019 us.
Intrinsic tran analysis time:    CPU = 22.997 ms, elapsed = 48.6121 ms.
Total time required for tran analysis `trans-000_trans': CPU = 25.997 ms, elapsed = 51.3232 ms.
Time accumulated: CPU = 9.37957 s, elapsed = 15.1585 s.
Peak resident memory used = 235 Mbytes.


Notice from spectre during task `MDLControl'.
    2 notices suppressed.
Warning from spectre.
    WARNING (SPECTRE-17101): The value 'psf' specified for the 'checklimitdest' option will no longer be supported in future releases. Use 'spectre -h' to see other recommended values for the 'checklimitdest' option.
    WARNING (SPECTRE-17101): The value 'psf' specified for the 'checklimitdest' option will no longer be supported in future releases. Use 'spectre -h' to see other recommended values for the 'checklimitdest' option.


***********************************************************
Transient Analysis `trans-000_trans': time = (0 s -> 20 us)
***********************************************************
DC simulation time: CPU = 1 ms, elapsed = 699.043 us.

Opening the PSFXL file ./input.raw/trans-000_trans.tran.tran ...
Important parameter values:
    start = 0 s
    outputstart = 0 s
    stop = 20 us
    step = 20 ns
    maxstep = 400 ns
    ic = all
    useprevic = no
    skipdc = no
    reltol = 1e-03
    abstol(V) = 1 uV
    abstol(I) = 1 pA
    temp = 27 C
    tnom = 27 C
    tempeffects = all
    errpreset = moderate
    method = traponly
    lteratio = 3.5
    relref = sigglobal
    cmin = 0 F
    gmin = 1 pS


Output and IC/nodeset summary:
                 save   4       (current)
                 save   8       (voltage)

..

Notice from spectre at time = 947.421 ns during transient analysis `trans-000_trans', during task `MDLControl'.
    Found trapezoidal ringing on node V0:p.

...

Notice from spectre at time = 1.34742 us during transient analysis `trans-000_trans', during task `MDLControl'.
    Found trapezoidal ringing on node V0:p.

.....

Notice from spectre at time = 1.74742 us during transient analysis `trans-000_trans', during task `MDLControl'.
    Found trapezoidal ringing on node V0:p.

......

Notice from spectre at time = 2.14742 us during transient analysis `trans-000_trans', during task `MDLControl'.
    Found trapezoidal ringing on node V0:p.

......9.

Notice from spectre at time = 2.5 us during transient analysis `trans-000_trans', during task `MDLControl'.
    Found trapezoidal ringing on node V0:p.
        Further occurrences of this notice will be suppressed.

......9..
`AutoStop = yes'. Analysis finished at 2.50177 us.

Number of accepted tran steps =             97

Notice from spectre during transient analysis `trans-000_trans', during task `MDLControl'.
    Trapezoidal ringing is detected during tran analysis.
        Please use method=trap for better results and performance.


Maximum value achieved for any signal of each quantity: 
V: V(I3.PM2:int_s) = 426.4 mV
I: I(V1:p) = 25.07 uA
If your circuit contains signals of the same quantity that are vastly different in size (such as high voltage circuitry combined with low voltage control circuitry), you should consider specifying global option `bin_relref=yes'.

~~~~~~~~~~~~~~~~~~~~~~~~~~~~~~~~~
Post-Transient Simulation Summary
~~~~~~~~~~~~~~~~~~~~~~~~~~~~~~~~~
   -   To further speed up simulation, consider
          add ++aps on command line
~~~~~~~~~~~~~~~~~~~~~~~~~~~~~~~~~


During simulation, the CPU load for active processors is :
         0 (36.4 %)      1 (29.0 %)      2 (2.9 %)      
        Total: 68.7%
Initial condition solution time: CPU = 1 ms, elapsed = 742.912 us.
Intrinsic tran analysis time:    CPU = 22.996 ms, elapsed = 49.5691 ms.
Total time required for tran analysis `trans-000_trans': CPU = 25.996 ms, elapsed = 52.2668 ms.
Time accumulated: CPU = 9.44456 s, elapsed = 15.2495 s.
Peak resident memory used = 235 Mbytes.


Notice from spectre during task `MDLControl'.
    2 notices suppressed.


***********************************************************
Transient Analysis `trans-000_trans': time = (0 s -> 20 us)
***********************************************************
DC simulation time: CPU = 1 ms, elapsed = 688.076 us.

Opening the PSFXL file ./input.raw/trans-000_trans.tran.tran ...
Important parameter values:
    start = 0 s
    outputstart = 0 s
    stop = 20 us
    step = 20 ns
    maxstep = 400 ns
    ic = all
    useprevic = no
    skipdc = no
    reltol = 1e-03
    abstol(V) = 1 uV
    abstol(I) = 1 pA
    temp = 27 C
    tnom = 27 C
    tempeffects = all
    errpreset = moderate
    method = traponly
    lteratio = 3.5
    relref = sigglobal
    cmin = 0 F
    gmin = 1 pS


Output and IC/nodeset summary:
                 save   4       (current)
                 save   8       (voltage)

..

Notice from spectre at time = 947.421 ns during transient analysis `trans-000_trans', during task `MDLControl'.
    Found trapezoidal ringing on node V0:p.

...

Notice from spectre at time = 1.34742 us during transient analysis `trans-000_trans', during task `MDLControl'.
    Found trapezoidal ringing on node V0:p.

.....

Notice from spectre at time = 1.74742 us during transient analysis `trans-000_trans', during task `MDLControl'.
    Found trapezoidal ringing on node V0:p.

......

Notice from spectre at time = 2.14742 us during transient analysis `trans-000_trans', during task `MDLControl'.
    Found trapezoidal ringing on node V0:p.

......9.

Notice from spectre at time = 2.5 us during transient analysis `trans-000_trans', during task `MDLControl'.
    Found trapezoidal ringing on node V0:p.
        Further occurrences of this notice will be suppressed.

......9..
`AutoStop = yes'. Analysis finished at 2.50177 us.

Number of accepted tran steps =             97

Notice from spectre during transient analysis `trans-000_trans', during task `MDLControl'.
    Trapezoidal ringing is detected during tran analysis.
        Please use method=trap for better results and performance.


Maximum value achieved for any signal of each quantity: 
V: V(I3.PM2:int_s) = 426.4 mV
I: I(V1:p) = 25.07 uA
If your circuit contains signals of the same quantity that are vastly different in size (such as high voltage circuitry combined with low voltage control circuitry), you should consider specifying global option `bin_relref=yes'.

~~~~~~~~~~~~~~~~~~~~~~~~~~~~~~~~~
Post-Transient Simulation Summary
~~~~~~~~~~~~~~~~~~~~~~~~~~~~~~~~~
   -   To further speed up simulation, consider
          add ++aps on command line
~~~~~~~~~~~~~~~~~~~~~~~~~~~~~~~~~


During simulation, the CPU load for active processors is :
         0 (36.3 %)      1 (29.0 %)      2 (2.9 %)      
        Total: 68.5%
Initial condition solution time: CPU = 1 ms, elapsed = 730.991 us.
Intrinsic tran analysis time:    CPU = 19.997 ms, elapsed = 48.6889 ms.
Total time required for tran analysis `trans-000_trans': CPU = 22.997 ms, elapsed = 52.918 ms.
Time accumulated: CPU = 9.46956 s, elapsed = 15.3039 s.
Peak resident memory used = 235 Mbytes.


Notice from spectre during task `MDLControl'.
    2 notices suppressed.


Aggregate audit (3:44:44 PM, Tue Nov 30, 2021):
Time used: CPU = 9.6 s, elapsed = 15.6 s, util. = 61.6%.
Time spent in licensing: elapsed = 334 ms.
Peak memory used = 236 Mbytes.
Simulation started at: 3:44:29 PM, Tue Nov 30, 2021, ended at: 3:44:44 PM, Tue Nov 30, 2021, with elapsed time (wall clock): 15.6 s.
spectre completes with 0 errors, 127 warnings, and 519 notices.
