
Spectre (R) Circuit Simulator
Version 19.1.0.396.isr8 64bit -- 19 Jun 2020
Copyright (C) 1989-2020 Cadence Design Systems, Inc. All rights reserved worldwide. Cadence and Spectre are registered trademarks of Cadence Design Systems, Inc. All others are the property of their respective holders.

Includes RSA BSAFE(R) Cryptographic or Security Protocol Software from RSA Security, Inc.

User: VLSI_ANALOG   Host: cad19   HostID: 7F0100   PID: 19558
Memory  available: 194.5108 MB  physical: 3.9726 GB
Linux   : Red Hat Enterprise Linux Server release 6.9 (Santiago)
CPU Type: Intel(R) Core(TM) i5-2320 CPU @ 3.00GHz
All processors running at 1600.0 MHz
        Socket: Processors
        0:       0,  1,  2,  3
        
System load averages (1min, 5min, 15min) : 3.0 %, 2.0 %, 2.0 %


Simulating `./input.scs' on cad19 at 4:21:43 PM, Mon Dec 27, 2021 (process id: 19558).
Current working directory: /home/VLSI_ANALOG/UMC40/Optimisation/NOR2M1
Command line:
    /home/installs/SPECTRE191/tools.lnx86/bin/spectre -64 =mdl  \
        input.mdl ./input.scs

Loading /home/installs/SPECTRE191/tools.lnx86/cmi/lib/64bit/5.0/libinfineon_sh.so ...
Loading /home/installs/SPECTRE191/tools.lnx86/cmi/lib/64bit/5.0/libphilips_o_sh.so ...
Loading /home/installs/SPECTRE191/tools.lnx86/cmi/lib/64bit/5.0/libphilips_sh.so ...
Loading /home/installs/SPECTRE191/tools.lnx86/cmi/lib/64bit/5.0/libsparam_sh.so ...
Loading /home/installs/SPECTRE191/tools.lnx86/cmi/lib/64bit/5.0/libstmodels_sh.so ...
Loading /home/installs/SPECTRE191/tools.lnx86/spectre/lib/64bit/mdl/libSpectreEH_sh.so ...
Reading file:  /home/VLSI_ANALOG/UMC40/Optimisation/NOR2M1/input.mdl
Reading file:  /home/VLSI_ANALOG/UMC40/Optimisation/NOR2M1/input.scs
Reading file:  /home/installs/SPECTRE191/tools.lnx86/spectre/etc/configs/spectre.cfg
Reading file:  /home/VLSI_ANALOG/UMC40/FDK_LP/Models/Spectre/l40lp_rf_v152_e.lib.scs
Reading file:  /home/VLSI_ANALOG/UMC40/FDK_LP/Models/Spectre/l40lp_mm_v1101_e.lib.scs
Time for NDB Parsing: CPU = 1.2998 s, elapsed = 1.70807 s.
Time accumulated: CPU = 1.45378 s, elapsed = 1.70808 s.
Peak resident memory used = 114 Mbytes.

Time for Elaboration: CPU = 35.994 ms, elapsed = 36.109 ms.
Time accumulated: CPU = 1.48977 s, elapsed = 1.74439 s.
Peak resident memory used = 124 Mbytes.


Warning from spectre during hierarchy flattening.
    WARNING (SPECTRE-17101): The value 'psf' specified for the 'checklimitdest' option will no longer be supported in future releases. Use 'spectre -h' to see other recommended values for the 'checklimitdest' option.


Time for EDB Visiting: CPU = 2 ms, elapsed = 12.9151 ms.
Time accumulated: CPU = 1.49177 s, elapsed = 1.75747 s.
Peak resident memory used = 125 Mbytes.


Global user options:
         psfversion = 1.4.0
            vabstol = 1e-06
            iabstol = 1e-12
               temp = 27
               gmin = 1e-12
             rforce = 1
           maxnotes = 5
           maxwarns = 5
             digits = 5
               cols = 80
             pivrel = 0.001
           sensfile = ../psf/sens.output
     checklimitdest = psf
               save = all
                pwr = all
           currents = all
             reltol = 0.001
               tnom = 27
             scalem = 1
              scale = 1

Scoped user options:

Circuit inventory:
              nodes 5
              bsim4 4     
          capacitor 1     
            vsource 3     

Analysis and control statement inventory:
                 dc 2     
               info 8     
               tran 1     

Output statements:
             .probe 0     
           .measure 0     
               save 0     

Time for parsing: CPU = 3 ms, elapsed = 81.2609 ms.
Time accumulated: CPU = 1.49477 s, elapsed = 1.83888 s.
Peak resident memory used = 126 Mbytes.

~~~~~~~~~~~~~~~~~~~~~~
Pre-Simulation Summary
~~~~~~~~~~~~~~~~~~~~~~
~~~~~~~~~~~~~~~~~~~~~~

*************************************************
Transient Analysis `trans': time = (0 s -> 20 us)
*************************************************
DC simulation time: CPU = 1 ms, elapsed = 1.05786 ms.

Opening the PSFXL file ./input.raw/trans.tran.tran ...
Important parameter values:
    start = 0 s
    outputstart = 0 s
    stop = 20 us
    step = 20 ns
    maxstep = 400 ns
    ic = all
    useprevic = no
    skipdc = no
    reltol = 1e-03
    abstol(V) = 1 uV
    abstol(I) = 1 pA
    temp = 27 C
    tnom = 27 C
    tempeffects = all
    errpreset = moderate
    method = traponly
    lteratio = 3.5
    relref = sigglobal
    cmin = 0 F
    gmin = 1 pS


Output and IC/nodeset summary:
                 save   20      (current)
                 save   13      (voltage)
                 others 6       


Notice from spectre at time = 2.74609 ps during transient analysis `trans', during task `MDLControl'.
    Found trapezoidal ringing on node I11.NM1:int_s.
Notice from spectre at time = 3.7789 ps during transient analysis `trans', during task `MDLControl'.
    Found trapezoidal ringing on node I11.NM1:int_s.
Notice from spectre at time = 5.4879 ps during transient analysis `trans', during task `MDLControl'.
    Found trapezoidal ringing on node I11.NM1:int_s.
Notice from spectre at time = 8.30274 ps during transient analysis `trans', during task `MDLControl'.
    Found trapezoidal ringing on node I11.NM1:int_s.
Notice from spectre at time = 12.9805 ps during transient analysis `trans', during task `MDLControl'.
    Found trapezoidal ringing on node I11.NM1:int_s.
        Further occurrences of this notice will be suppressed.

......9......8....
`AutoStop = yes'. Analysis finished at 5 us.

Number of accepted tran steps =             214

Notice from spectre during transient analysis `trans', during task `MDLControl'.
    Trapezoidal ringing is detected during tran analysis.
        Please use method=trap for better results and performance.


Maximum value achieved for any signal of each quantity: 
V: V(I11.PM1:int_d) = 411.9 mV
I: I(V1:p) = 831.4 uA
If your circuit contains signals of the same quantity that are vastly different in size (such as high voltage circuitry combined with low voltage control circuitry), you should consider specifying global option `bin_relref=yes'.

~~~~~~~~~~~~~~~~~~~~~~~~~~~~~~~~~
Post-Transient Simulation Summary
~~~~~~~~~~~~~~~~~~~~~~~~~~~~~~~~~
   -   To further speed up simulation, consider
          add ++aps on command line
~~~~~~~~~~~~~~~~~~~~~~~~~~~~~~~~~


During simulation, the CPU load for active processors is :
         0 (15.3 %)      1 (8.1 %)       2 (5.5 %)       3 (72.6 %)
        Total: 101.5%
Initial condition solution time: CPU = 1 ms, elapsed = 1.15991 ms.
Intrinsic tran analysis time:    CPU = 38.994 ms, elapsed = 86.097 ms.
Total time required for tran analysis `trans': CPU = 44.993 ms, elapsed = 111.929 ms.
Time accumulated: CPU = 1.54676 s, elapsed = 1.9582 s.
Peak resident memory used = 130 Mbytes.


Notice from spectre during task `MDLControl'.
    84 notices suppressed.


******************************************
DC Analysis `dcs': V1:dc = (0 V -> 300 mV)
******************************************

Opening the PSF file ./input.raw/dcs.dc ...
Important parameter values:
    reltol = 1e-03
    abstol(V) = 1 uV
    abstol(I) = 1 pA
    temp = 27 C
    tnom = 27 C
    tempeffects = all
    gmindc = 1 pS
    dcs: dc = 12 mV          (4 %), step = 6 mV            (2 %)
    dcs: dc = 18 mV          (6 %), step = 6 mV            (2 %)
    dcs: dc = 24 mV          (8 %), step = 6 mV            (2 %)
    dcs: dc = 30 mV         (10 %), step = 6 mV            (2 %)
    dcs: dc = 36 mV         (12 %), step = 6 mV            (2 %)
    dcs: dc = 42 mV         (14 %), step = 6 mV            (2 %)
    dcs: dc = 48 mV         (16 %), step = 6 mV            (2 %)
    dcs: dc = 54 mV         (18 %), step = 6 mV            (2 %)
    dcs: dc = 60 mV         (20 %), step = 6 mV            (2 %)
    dcs: dc = 66 mV         (22 %), step = 6 mV            (2 %)
    dcs: dc = 72 mV         (24 %), step = 6 mV            (2 %)
    dcs: dc = 78 mV         (26 %), step = 6 mV            (2 %)
    dcs: dc = 84 mV         (28 %), step = 6 mV            (2 %)
    dcs: dc = 90 mV         (30 %), step = 6 mV            (2 %)
    dcs: dc = 96 mV         (32 %), step = 6 mV            (2 %)
    dcs: dc = 102 mV        (34 %), step = 6 mV            (2 %)
    dcs: dc = 108 mV        (36 %), step = 6 mV            (2 %)
    dcs: dc = 114 mV        (38 %), step = 6 mV            (2 %)
    dcs: dc = 120 mV        (40 %), step = 6 mV            (2 %)
    dcs: dc = 126 mV        (42 %), step = 6 mV            (2 %)
    dcs: dc = 132 mV        (44 %), step = 6 mV            (2 %)
    dcs: dc = 138 mV        (46 %), step = 6 mV            (2 %)
    dcs: dc = 144 mV        (48 %), step = 6 mV            (2 %)
    dcs: dc = 150 mV        (50 %), step = 6 mV            (2 %)
    dcs: dc = 156 mV        (52 %), step = 6 mV            (2 %)
    dcs: dc = 162 mV        (54 %), step = 6 mV            (2 %)
    dcs: dc = 168 mV        (56 %), step = 6 mV            (2 %)
    dcs: dc = 174 mV        (58 %), step = 6 mV            (2 %)
    dcs: dc = 180 mV        (60 %), step = 6 mV            (2 %)
    dcs: dc = 186 mV        (62 %), step = 6 mV            (2 %)
    dcs: dc = 192 mV        (64 %), step = 6 mV            (2 %)
    dcs: dc = 198 mV        (66 %), step = 6 mV            (2 %)
    dcs: dc = 204 mV        (68 %), step = 6 mV            (2 %)
    dcs: dc = 210 mV        (70 %), step = 6 mV            (2 %)
    dcs: dc = 216 mV        (72 %), step = 6 mV            (2 %)
    dcs: dc = 222 mV        (74 %), step = 6 mV            (2 %)
    dcs: dc = 228 mV        (76 %), step = 6 mV            (2 %)
    dcs: dc = 234 mV        (78 %), step = 6 mV            (2 %)
    dcs: dc = 240 mV        (80 %), step = 6 mV            (2 %)
    dcs: dc = 246 mV        (82 %), step = 6 mV            (2 %)
    dcs: dc = 252 mV        (84 %), step = 6 mV            (2 %)
    dcs: dc = 258 mV        (86 %), step = 6 mV            (2 %)
    dcs: dc = 264 mV        (88 %), step = 6 mV            (2 %)
    dcs: dc = 270 mV        (90 %), step = 6 mV            (2 %)
    dcs: dc = 276 mV        (92 %), step = 6 mV            (2 %)
    dcs: dc = 282 mV        (94 %), step = 6 mV            (2 %)
    dcs: dc = 288 mV        (96 %), step = 6 mV            (2 %)
    dcs: dc = 294 mV        (98 %), step = 6 mV            (2 %)
    dcs: dc = 300 mV       (100 %), step = 6 mV            (2 %)

Maximum value achieved for any signal of each quantity: 
V: V(net3) = 300 mV
I: I(V0:p) = 946.3 pA
DC simulation time: CPU = 21.997 ms, elapsed = 83.349 ms.

Notice from spectre at dc = 300 mV during DC analysis `dcs', during task `MDLControl'.
    The value of parameter 'dc' has been reset to the original value 0.

Total time required for dc analysis `dcs': CPU = 21.997 ms, elapsed = 83.4131 ms.
Time accumulated: CPU = 1.57176 s, elapsed = 2.11573 s.
Peak resident memory used = 130 Mbytes.


Warning from spectre.
    WARNING (SPECTRE-17101): The value 'psf' specified for the 'checklimitdest' option will no longer be supported in future releases. Use 'spectre -h' to see other recommended values for the 'checklimitdest' option.
    WARNING (SPECTRE-17101): The value 'psf' specified for the 'checklimitdest' option will no longer be supported in future releases. Use 'spectre -h' to see other recommended values for the 'checklimitdest' option.
    WARNING (SPECTRE-17101): The value 'psf' specified for the 'checklimitdest' option will no longer be supported in future releases. Use 'spectre -h' to see other recommended values for the 'checklimitdest' option.


Opening the PSF file ./input.raw/trans.optimize ...

***********************************************************
Transient Analysis `trans-000_trans': time = (0 s -> 20 us)
***********************************************************
DC simulation time: CPU = 1 ms, elapsed = 744.82 us.

Opening the PSFXL file ./input.raw/trans-000_trans.tran.tran ...
Important parameter values:
    start = 0 s
    outputstart = 0 s
    stop = 20 us
    step = 20 ns
    maxstep = 400 ns
    ic = all
    useprevic = no
    skipdc = no
    reltol = 1e-03
    abstol(V) = 1 uV
    abstol(I) = 1 pA
    temp = 27 C
    tnom = 27 C
    tempeffects = all
    errpreset = moderate
    method = traponly
    lteratio = 3.5
    relref = sigglobal
    cmin = 0 F
    gmin = 1 pS


Output and IC/nodeset summary:
                 save   20      (current)
                 save   13      (voltage)
                 others 6       


Notice from spectre at time = 2.383 ps during transient analysis `trans-000_trans', during task `MDLControl'.
    Found trapezoidal ringing on node I11.NM1:int_s.
Notice from spectre at time = 3.12438 ps during transient analysis `trans-000_trans', during task `MDLControl'.
    Found trapezoidal ringing on node I11.NM1:int_s.
Notice from spectre at time = 4.3314 ps during transient analysis `trans-000_trans', during task `MDLControl'.
    Found trapezoidal ringing on node I11.NM1:int_s.
Notice from spectre at time = 6.30053 ps during transient analysis `trans-000_trans', during task `MDLControl'.
    Found trapezoidal ringing on node I11.NM1:int_s.
Notice from spectre at time = 9.54969 ps during transient analysis `trans-000_trans', during task `MDLControl'.
    Found trapezoidal ringing on node I11.NM1:int_s.
        Further occurrences of this notice will be suppressed.

......9......8....
`AutoStop = yes'. Analysis finished at 5 us.

Number of accepted tran steps =             213

Notice from spectre during transient analysis `trans-000_trans', during task `MDLControl'.
    Trapezoidal ringing is detected during tran analysis.
        Please use method=trap for better results and performance.


Maximum value achieved for any signal of each quantity: 
V: V(I11.PM0:int_s) = 410.6 mV
I: I(V1:p) = 274.7 uA
If your circuit contains signals of the same quantity that are vastly different in size (such as high voltage circuitry combined with low voltage control circuitry), you should consider specifying global option `bin_relref=yes'.

~~~~~~~~~~~~~~~~~~~~~~~~~~~~~~~~~
Post-Transient Simulation Summary
~~~~~~~~~~~~~~~~~~~~~~~~~~~~~~~~~
   -   To further speed up simulation, consider
          add ++aps on command line
~~~~~~~~~~~~~~~~~~~~~~~~~~~~~~~~~


During simulation, the CPU load for active processors is :
         0 (21.0 %)      1 (11.1 %)      2 (7.6 %)       3 (61.1 %)
        Total: 100.7%
Initial condition solution time: CPU = 1 ms, elapsed = 833.988 us.
Intrinsic tran analysis time:    CPU = 35.994 ms, elapsed = 76.251 ms.
Total time required for tran analysis `trans-000_trans': CPU = 40.993 ms, elapsed = 94.6331 ms.
Time accumulated: CPU = 1.64375 s, elapsed = 2.37105 s.
Peak resident memory used = 131 Mbytes.


Notice from spectre during task `MDLControl'.
    85 notices suppressed.


Opening the PSF file ./input.raw/dcs.optimize ...

**************************************************
DC Analysis `dcs-000_dcs': V1:dc = (0 V -> 300 mV)
**************************************************

Opening the PSF file ./input.raw/dcs-000_dcs.dc ...
Important parameter values:
    reltol = 1e-03
    abstol(V) = 1 uV
    abstol(I) = 1 pA
    temp = 27 C
    tnom = 27 C
    tempeffects = all
    gmindc = 1 pS
    dcs-000_dcs: dc = 12 mV          (4 %), step = 6 mV            (2 %)
    dcs-000_dcs: dc = 18 mV          (6 %), step = 6 mV            (2 %)
    dcs-000_dcs: dc = 24 mV          (8 %), step = 6 mV            (2 %)
    dcs-000_dcs: dc = 30 mV         (10 %), step = 6 mV            (2 %)
    dcs-000_dcs: dc = 36 mV         (12 %), step = 6 mV            (2 %)
    dcs-000_dcs: dc = 42 mV         (14 %), step = 6 mV            (2 %)
    dcs-000_dcs: dc = 48 mV         (16 %), step = 6 mV            (2 %)
    dcs-000_dcs: dc = 54 mV         (18 %), step = 6 mV            (2 %)
    dcs-000_dcs: dc = 60 mV         (20 %), step = 6 mV            (2 %)
    dcs-000_dcs: dc = 66 mV         (22 %), step = 6 mV            (2 %)
    dcs-000_dcs: dc = 72 mV         (24 %), step = 6 mV            (2 %)
    dcs-000_dcs: dc = 78 mV         (26 %), step = 6 mV            (2 %)
    dcs-000_dcs: dc = 84 mV         (28 %), step = 6 mV            (2 %)
    dcs-000_dcs: dc = 90 mV         (30 %), step = 6 mV            (2 %)
    dcs-000_dcs: dc = 96 mV         (32 %), step = 6 mV            (2 %)
    dcs-000_dcs: dc = 102 mV        (34 %), step = 6 mV            (2 %)
    dcs-000_dcs: dc = 108 mV        (36 %), step = 6 mV            (2 %)
    dcs-000_dcs: dc = 114 mV        (38 %), step = 6 mV            (2 %)
    dcs-000_dcs: dc = 120 mV        (40 %), step = 6 mV            (2 %)
    dcs-000_dcs: dc = 126 mV        (42 %), step = 6 mV            (2 %)
    dcs-000_dcs: dc = 132 mV        (44 %), step = 6 mV            (2 %)
    dcs-000_dcs: dc = 138 mV        (46 %), step = 6 mV            (2 %)
    dcs-000_dcs: dc = 144 mV        (48 %), step = 6 mV            (2 %)
    dcs-000_dcs: dc = 150 mV        (50 %), step = 6 mV            (2 %)
    dcs-000_dcs: dc = 156 mV        (52 %), step = 6 mV            (2 %)
    dcs-000_dcs: dc = 162 mV        (54 %), step = 6 mV            (2 %)
    dcs-000_dcs: dc = 168 mV        (56 %), step = 6 mV            (2 %)
    dcs-000_dcs: dc = 174 mV        (58 %), step = 6 mV            (2 %)
    dcs-000_dcs: dc = 180 mV        (60 %), step = 6 mV            (2 %)
    dcs-000_dcs: dc = 186 mV        (62 %), step = 6 mV            (2 %)
    dcs-000_dcs: dc = 192 mV        (64 %), step = 6 mV            (2 %)
    dcs-000_dcs: dc = 198 mV        (66 %), step = 6 mV            (2 %)
    dcs-000_dcs: dc = 204 mV        (68 %), step = 6 mV            (2 %)
    dcs-000_dcs: dc = 210 mV        (70 %), step = 6 mV            (2 %)
    dcs-000_dcs: dc = 216 mV        (72 %), step = 6 mV            (2 %)
    dcs-000_dcs: dc = 222 mV        (74 %), step = 6 mV            (2 %)
    dcs-000_dcs: dc = 228 mV        (76 %), step = 6 mV            (2 %)
    dcs-000_dcs: dc = 234 mV        (78 %), step = 6 mV            (2 %)
    dcs-000_dcs: dc = 240 mV        (80 %), step = 6 mV            (2 %)
    dcs-000_dcs: dc = 246 mV        (82 %), step = 6 mV            (2 %)
    dcs-000_dcs: dc = 252 mV        (84 %), step = 6 mV            (2 %)
    dcs-000_dcs: dc = 258 mV        (86 %), step = 6 mV            (2 %)
    dcs-000_dcs: dc = 264 mV        (88 %), step = 6 mV            (2 %)
    dcs-000_dcs: dc = 270 mV        (90 %), step = 6 mV            (2 %)
    dcs-000_dcs: dc = 276 mV        (92 %), step = 6 mV            (2 %)
    dcs-000_dcs: dc = 282 mV        (94 %), step = 6 mV            (2 %)
    dcs-000_dcs: dc = 288 mV        (96 %), step = 6 mV            (2 %)
    dcs-000_dcs: dc = 294 mV        (98 %), step = 6 mV            (2 %)
    dcs-000_dcs: dc = 300 mV       (100 %), step = 6 mV            (2 %)

Maximum value achieved for any signal of each quantity: 
V: V(net3) = 300 mV
I: I(V0:p) = 350.5 pA
DC simulation time: CPU = 20.997 ms, elapsed = 52.458 ms.

Notice from spectre at dc = 300 mV during DC analysis `dcs-000_dcs', during task `MDLControl'.
    The value of parameter 'dc' has been reset to the original value 0.

Total time required for dc analysis `dcs-000_dcs': CPU = 20.997 ms, elapsed = 52.511 ms.
Time accumulated: CPU = 1.67074 s, elapsed = 2.50477 s.
Peak resident memory used = 131 Mbytes.


Warning from spectre.
    WARNING (SPECTRE-17101): The value 'psf' specified for the 'checklimitdest' option will no longer be supported in future releases. Use 'spectre -h' to see other recommended values for the 'checklimitdest' option.


***********************************************************
Transient Analysis `trans-000_trans': time = (0 s -> 20 us)
***********************************************************
DC simulation time: CPU = 1 ms, elapsed = 613.928 us.

Opening the PSFXL file ./input.raw/trans-000_trans.tran.tran ...
Important parameter values:
    start = 0 s
    outputstart = 0 s
    stop = 20 us
    step = 20 ns
    maxstep = 400 ns
    ic = all
    useprevic = no
    skipdc = no
    reltol = 1e-03
    abstol(V) = 1 uV
    abstol(I) = 1 pA
    temp = 27 C
    tnom = 27 C
    tempeffects = all
    errpreset = moderate
    method = traponly
    lteratio = 3.5
    relref = sigglobal
    cmin = 0 F
    gmin = 1 pS


Output and IC/nodeset summary:
                 save   20      (current)
                 save   13      (voltage)
                 others 6       


Notice from spectre at time = 2.3832 ps during transient analysis `trans-000_trans', during task `MDLControl'.
    Found trapezoidal ringing on node I11.NM1:int_s.
Notice from spectre at time = 3.12471 ps during transient analysis `trans-000_trans', during task `MDLControl'.
    Found trapezoidal ringing on node I11.NM1:int_s.
Notice from spectre at time = 4.33194 ps during transient analysis `trans-000_trans', during task `MDLControl'.
    Found trapezoidal ringing on node I11.NM1:int_s.
Notice from spectre at time = 6.30142 ps during transient analysis `trans-000_trans', during task `MDLControl'.
    Found trapezoidal ringing on node I11.NM1:int_s.
Notice from spectre at time = 9.55115 ps during transient analysis `trans-000_trans', during task `MDLControl'.
    Found trapezoidal ringing on node I11.NM1:int_s.
        Further occurrences of this notice will be suppressed.

......9......8....
`AutoStop = yes'. Analysis finished at 5 us.

Number of accepted tran steps =             219

Notice from spectre during transient analysis `trans-000_trans', during task `MDLControl'.
    Trapezoidal ringing is detected during tran analysis.
        Please use method=trap for better results and performance.


Maximum value achieved for any signal of each quantity: 
V: V(I11.PM0:int_s) = 410.7 mV
I: I(V1:p) = 281.7 uA
If your circuit contains signals of the same quantity that are vastly different in size (such as high voltage circuitry combined with low voltage control circuitry), you should consider specifying global option `bin_relref=yes'.

~~~~~~~~~~~~~~~~~~~~~~~~~~~~~~~~~
Post-Transient Simulation Summary
~~~~~~~~~~~~~~~~~~~~~~~~~~~~~~~~~
   -   To further speed up simulation, consider
          add ++aps on command line
~~~~~~~~~~~~~~~~~~~~~~~~~~~~~~~~~


During simulation, the CPU load for active processors is :
         0 (22.9 %)      1 (13.5 %)      2 (8.8 %)       3 (57.4 %)
        Total: 102.6%
Initial condition solution time: CPU = 1 ms, elapsed = 658.989 us.
Intrinsic tran analysis time:    CPU = 32.995 ms, elapsed = 101.81 ms.
Total time required for tran analysis `trans-000_trans': CPU = 35.995 ms, elapsed = 104.859 ms.
Time accumulated: CPU = 1.71574 s, elapsed = 2.61918 s.
Peak resident memory used = 131 Mbytes.


Notice from spectre during task `MDLControl'.
    78 notices suppressed.


**************************************************
DC Analysis `dcs-000_dcs': V1:dc = (0 V -> 300 mV)
**************************************************

Opening the PSF file ./input.raw/dcs-000_dcs.dc ...
Important parameter values:
    reltol = 1e-03
    abstol(V) = 1 uV
    abstol(I) = 1 pA
    temp = 27 C
    tnom = 27 C
    tempeffects = all
    gmindc = 1 pS
    dcs-000_dcs: dc = 12 mV          (4 %), step = 6 mV            (2 %)
    dcs-000_dcs: dc = 18 mV          (6 %), step = 6 mV            (2 %)
    dcs-000_dcs: dc = 24 mV          (8 %), step = 6 mV            (2 %)
    dcs-000_dcs: dc = 30 mV         (10 %), step = 6 mV            (2 %)
    dcs-000_dcs: dc = 36 mV         (12 %), step = 6 mV            (2 %)
    dcs-000_dcs: dc = 42 mV         (14 %), step = 6 mV            (2 %)
    dcs-000_dcs: dc = 48 mV         (16 %), step = 6 mV            (2 %)
    dcs-000_dcs: dc = 54 mV         (18 %), step = 6 mV            (2 %)
    dcs-000_dcs: dc = 60 mV         (20 %), step = 6 mV            (2 %)
    dcs-000_dcs: dc = 66 mV         (22 %), step = 6 mV            (2 %)
    dcs-000_dcs: dc = 72 mV         (24 %), step = 6 mV            (2 %)
    dcs-000_dcs: dc = 78 mV         (26 %), step = 6 mV            (2 %)
    dcs-000_dcs: dc = 84 mV         (28 %), step = 6 mV            (2 %)
    dcs-000_dcs: dc = 90 mV         (30 %), step = 6 mV            (2 %)
    dcs-000_dcs: dc = 96 mV         (32 %), step = 6 mV            (2 %)
    dcs-000_dcs: dc = 102 mV        (34 %), step = 6 mV            (2 %)
    dcs-000_dcs: dc = 108 mV        (36 %), step = 6 mV            (2 %)
    dcs-000_dcs: dc = 114 mV        (38 %), step = 6 mV            (2 %)
    dcs-000_dcs: dc = 120 mV        (40 %), step = 6 mV            (2 %)
    dcs-000_dcs: dc = 126 mV        (42 %), step = 6 mV            (2 %)
    dcs-000_dcs: dc = 132 mV        (44 %), step = 6 mV            (2 %)
    dcs-000_dcs: dc = 138 mV        (46 %), step = 6 mV            (2 %)
    dcs-000_dcs: dc = 144 mV        (48 %), step = 6 mV            (2 %)
    dcs-000_dcs: dc = 150 mV        (50 %), step = 6 mV            (2 %)
    dcs-000_dcs: dc = 156 mV        (52 %), step = 6 mV            (2 %)
    dcs-000_dcs: dc = 162 mV        (54 %), step = 6 mV            (2 %)
    dcs-000_dcs: dc = 168 mV        (56 %), step = 6 mV            (2 %)
    dcs-000_dcs: dc = 174 mV        (58 %), step = 6 mV            (2 %)
    dcs-000_dcs: dc = 180 mV        (60 %), step = 6 mV            (2 %)
    dcs-000_dcs: dc = 186 mV        (62 %), step = 6 mV            (2 %)
    dcs-000_dcs: dc = 192 mV        (64 %), step = 6 mV            (2 %)
    dcs-000_dcs: dc = 198 mV        (66 %), step = 6 mV            (2 %)
    dcs-000_dcs: dc = 204 mV        (68 %), step = 6 mV            (2 %)
    dcs-000_dcs: dc = 210 mV        (70 %), step = 6 mV            (2 %)
    dcs-000_dcs: dc = 216 mV        (72 %), step = 6 mV            (2 %)
    dcs-000_dcs: dc = 222 mV        (74 %), step = 6 mV            (2 %)
    dcs-000_dcs: dc = 228 mV        (76 %), step = 6 mV            (2 %)
    dcs-000_dcs: dc = 234 mV        (78 %), step = 6 mV            (2 %)
    dcs-000_dcs: dc = 240 mV        (80 %), step = 6 mV            (2 %)
    dcs-000_dcs: dc = 246 mV        (82 %), step = 6 mV            (2 %)
    dcs-000_dcs: dc = 252 mV        (84 %), step = 6 mV            (2 %)
    dcs-000_dcs: dc = 258 mV        (86 %), step = 6 mV            (2 %)
    dcs-000_dcs: dc = 264 mV        (88 %), step = 6 mV            (2 %)
    dcs-000_dcs: dc = 270 mV        (90 %), step = 6 mV            (2 %)
    dcs-000_dcs: dc = 276 mV        (92 %), step = 6 mV            (2 %)
    dcs-000_dcs: dc = 282 mV        (94 %), step = 6 mV            (2 %)
    dcs-000_dcs: dc = 288 mV        (96 %), step = 6 mV            (2 %)
    dcs-000_dcs: dc = 294 mV        (98 %), step = 6 mV            (2 %)
    dcs-000_dcs: dc = 300 mV       (100 %), step = 6 mV            (2 %)

Maximum value achieved for any signal of each quantity: 
V: V(net3) = 300 mV
I: I(V0:p) = 362.9 pA
DC simulation time: CPU = 20.997 ms, elapsed = 61.5699 ms.

Notice from spectre at dc = 300 mV during DC analysis `dcs-000_dcs', during task `MDLControl'.
    The value of parameter 'dc' has been reset to the original value 0.

Total time required for dc analysis `dcs-000_dcs': CPU = 20.997 ms, elapsed = 61.6131 ms.
Time accumulated: CPU = 1.73874 s, elapsed = 2.68168 s.
Peak resident memory used = 131 Mbytes.


Warning from spectre.
    WARNING (SPECTRE-17101): The value 'psf' specified for the 'checklimitdest' option will no longer be supported in future releases. Use 'spectre -h' to see other recommended values for the 'checklimitdest' option.
    WARNING (SPECTRE-17101): The value 'psf' specified for the 'checklimitdest' option will no longer be supported in future releases. Use 'spectre -h' to see other recommended values for the 'checklimitdest' option.


***********************************************************
Transient Analysis `trans-000_trans': time = (0 s -> 20 us)
***********************************************************
DC simulation time: CPU = 1 ms, elapsed = 427.008 us.

Opening the PSFXL file ./input.raw/trans-000_trans.tran.tran ...
Important parameter values:
    start = 0 s
    outputstart = 0 s
    stop = 20 us
    step = 20 ns
    maxstep = 400 ns
    ic = all
    useprevic = no
    skipdc = no
    reltol = 1e-03
    abstol(V) = 1 uV
    abstol(I) = 1 pA
    temp = 27 C
    tnom = 27 C
    tempeffects = all
    errpreset = moderate
    method = traponly
    lteratio = 3.5
    relref = sigglobal
    cmin = 0 F
    gmin = 1 pS


Output and IC/nodeset summary:
                 save   20      (current)
                 save   13      (voltage)
                 others 6       


Notice from spectre at time = 2.3746 ps during transient analysis `trans-000_trans', during task `MDLControl'.
    Found trapezoidal ringing on node I11.NM1:int_s.
Notice from spectre at time = 3.11239 ps during transient analysis `trans-000_trans', during task `MDLControl'.
    Found trapezoidal ringing on node I11.NM1:int_s.
Notice from spectre at time = 4.31605 ps during transient analysis `trans-000_trans', during task `MDLControl'.
    Found trapezoidal ringing on node I11.NM1:int_s.
Notice from spectre at time = 6.28459 ps during transient analysis `trans-000_trans', during task `MDLControl'.
    Found trapezoidal ringing on node I11.NM1:int_s.
Notice from spectre at time = 9.5418 ps during transient analysis `trans-000_trans', during task `MDLControl'.
    Found trapezoidal ringing on node I11.NM1:int_s.
        Further occurrences of this notice will be suppressed.

......9......8....
`AutoStop = yes'. Analysis finished at 5 us.

Number of accepted tran steps =             217

Notice from spectre during transient analysis `trans-000_trans', during task `MDLControl'.
    Trapezoidal ringing is detected during tran analysis.
        Please use method=trap for better results and performance.


Maximum value achieved for any signal of each quantity: 
V: V(I11.PM0:int_s) = 410.6 mV
I: I(V1:p) = 276.3 uA
If your circuit contains signals of the same quantity that are vastly different in size (such as high voltage circuitry combined with low voltage control circuitry), you should consider specifying global option `bin_relref=yes'.

~~~~~~~~~~~~~~~~~~~~~~~~~~~~~~~~~
Post-Transient Simulation Summary
~~~~~~~~~~~~~~~~~~~~~~~~~~~~~~~~~
   -   To further speed up simulation, consider
          add ++aps on command line
~~~~~~~~~~~~~~~~~~~~~~~~~~~~~~~~~


During simulation, the CPU load for active processors is :
         0 (25.4 %)      1 (14.7 %)      2 (9.5 %)       3 (54.7 %)
        Total: 104.2%
Initial condition solution time: CPU = 1 ms, elapsed = 470.161 us.
Intrinsic tran analysis time:    CPU = 37.994 ms, elapsed = 76.8421 ms.
Total time required for tran analysis `trans-000_trans': CPU = 40.993 ms, elapsed = 79.6201 ms.
Time accumulated: CPU = 1.79473 s, elapsed = 2.77672 s.
Peak resident memory used = 131 Mbytes.


Notice from spectre during task `MDLControl'.
    75 notices suppressed.


**************************************************
DC Analysis `dcs-000_dcs': V1:dc = (0 V -> 300 mV)
**************************************************

Opening the PSF file ./input.raw/dcs-000_dcs.dc ...
Important parameter values:
    reltol = 1e-03
    abstol(V) = 1 uV
    abstol(I) = 1 pA
    temp = 27 C
    tnom = 27 C
    tempeffects = all
    gmindc = 1 pS
    dcs-000_dcs: dc = 12 mV          (4 %), step = 6 mV            (2 %)
    dcs-000_dcs: dc = 18 mV          (6 %), step = 6 mV            (2 %)
    dcs-000_dcs: dc = 24 mV          (8 %), step = 6 mV            (2 %)
    dcs-000_dcs: dc = 30 mV         (10 %), step = 6 mV            (2 %)
    dcs-000_dcs: dc = 36 mV         (12 %), step = 6 mV            (2 %)
    dcs-000_dcs: dc = 42 mV         (14 %), step = 6 mV            (2 %)
    dcs-000_dcs: dc = 48 mV         (16 %), step = 6 mV            (2 %)
    dcs-000_dcs: dc = 54 mV         (18 %), step = 6 mV            (2 %)
    dcs-000_dcs: dc = 60 mV         (20 %), step = 6 mV            (2 %)
    dcs-000_dcs: dc = 66 mV         (22 %), step = 6 mV            (2 %)
    dcs-000_dcs: dc = 72 mV         (24 %), step = 6 mV            (2 %)
    dcs-000_dcs: dc = 78 mV         (26 %), step = 6 mV            (2 %)
    dcs-000_dcs: dc = 84 mV         (28 %), step = 6 mV            (2 %)
    dcs-000_dcs: dc = 90 mV         (30 %), step = 6 mV            (2 %)
    dcs-000_dcs: dc = 96 mV         (32 %), step = 6 mV            (2 %)
    dcs-000_dcs: dc = 102 mV        (34 %), step = 6 mV            (2 %)
    dcs-000_dcs: dc = 108 mV        (36 %), step = 6 mV            (2 %)
    dcs-000_dcs: dc = 114 mV        (38 %), step = 6 mV            (2 %)
    dcs-000_dcs: dc = 120 mV        (40 %), step = 6 mV            (2 %)
    dcs-000_dcs: dc = 126 mV        (42 %), step = 6 mV            (2 %)
    dcs-000_dcs: dc = 132 mV        (44 %), step = 6 mV            (2 %)
    dcs-000_dcs: dc = 138 mV        (46 %), step = 6 mV            (2 %)
    dcs-000_dcs: dc = 144 mV        (48 %), step = 6 mV            (2 %)
    dcs-000_dcs: dc = 150 mV        (50 %), step = 6 mV            (2 %)
    dcs-000_dcs: dc = 156 mV        (52 %), step = 6 mV            (2 %)
    dcs-000_dcs: dc = 162 mV        (54 %), step = 6 mV            (2 %)
    dcs-000_dcs: dc = 168 mV        (56 %), step = 6 mV            (2 %)
    dcs-000_dcs: dc = 174 mV        (58 %), step = 6 mV            (2 %)
    dcs-000_dcs: dc = 180 mV        (60 %), step = 6 mV            (2 %)
    dcs-000_dcs: dc = 186 mV        (62 %), step = 6 mV            (2 %)
    dcs-000_dcs: dc = 192 mV        (64 %), step = 6 mV            (2 %)
    dcs-000_dcs: dc = 198 mV        (66 %), step = 6 mV            (2 %)
    dcs-000_dcs: dc = 204 mV        (68 %), step = 6 mV            (2 %)
    dcs-000_dcs: dc = 210 mV        (70 %), step = 6 mV            (2 %)
    dcs-000_dcs: dc = 216 mV        (72 %), step = 6 mV            (2 %)
    dcs-000_dcs: dc = 222 mV        (74 %), step = 6 mV            (2 %)
    dcs-000_dcs: dc = 228 mV        (76 %), step = 6 mV            (2 %)
    dcs-000_dcs: dc = 234 mV        (78 %), step = 6 mV            (2 %)
    dcs-000_dcs: dc = 240 mV        (80 %), step = 6 mV            (2 %)
    dcs-000_dcs: dc = 246 mV        (82 %), step = 6 mV            (2 %)
    dcs-000_dcs: dc = 252 mV        (84 %), step = 6 mV            (2 %)
    dcs-000_dcs: dc = 258 mV        (86 %), step = 6 mV            (2 %)
    dcs-000_dcs: dc = 264 mV        (88 %), step = 6 mV            (2 %)
    dcs-000_dcs: dc = 270 mV        (90 %), step = 6 mV            (2 %)
    dcs-000_dcs: dc = 276 mV        (92 %), step = 6 mV            (2 %)
    dcs-000_dcs: dc = 282 mV        (94 %), step = 6 mV            (2 %)
    dcs-000_dcs: dc = 288 mV        (96 %), step = 6 mV            (2 %)
    dcs-000_dcs: dc = 294 mV        (98 %), step = 6 mV            (2 %)
    dcs-000_dcs: dc = 300 mV       (100 %), step = 6 mV            (2 %)

Maximum value achieved for any signal of each quantity: 
V: V(net3) = 300 mV
I: I(V0:p) = 350.5 pA
DC simulation time: CPU = 20.997 ms, elapsed = 53.246 ms.

Notice from spectre at dc = 300 mV during DC analysis `dcs-000_dcs', during task `MDLControl'.
    The value of parameter 'dc' has been reset to the original value 0.

Total time required for dc analysis `dcs-000_dcs': CPU = 20.997 ms, elapsed = 53.288 ms.
Time accumulated: CPU = 1.81672 s, elapsed = 2.83069 s.
Peak resident memory used = 131 Mbytes.


Warning from spectre.
    WARNING (SPECTRE-17101): The value 'psf' specified for the 'checklimitdest' option will no longer be supported in future releases. Use 'spectre -h' to see other recommended values for the 'checklimitdest' option.
    WARNING (SPECTRE-17101): The value 'psf' specified for the 'checklimitdest' option will no longer be supported in future releases. Use 'spectre -h' to see other recommended values for the 'checklimitdest' option.


***********************************************************
Transient Analysis `trans-000_trans': time = (0 s -> 20 us)
***********************************************************
DC simulation time: CPU = 1 ms, elapsed = 447.989 us.

Opening the PSFXL file ./input.raw/trans-000_trans.tran.tran ...
Important parameter values:
    start = 0 s
    outputstart = 0 s
    stop = 20 us
    step = 20 ns
    maxstep = 400 ns
    ic = all
    useprevic = no
    skipdc = no
    reltol = 1e-03
    abstol(V) = 1 uV
    abstol(I) = 1 pA
    temp = 27 C
    tnom = 27 C
    tempeffects = all
    errpreset = moderate
    method = traponly
    lteratio = 3.5
    relref = sigglobal
    cmin = 0 F
    gmin = 1 pS


Output and IC/nodeset summary:
                 save   20      (current)
                 save   13      (voltage)
                 others 6       


Notice from spectre at time = 2.38307 ps during transient analysis `trans-000_trans', during task `MDLControl'.
    Found trapezoidal ringing on node I11.NM1:int_s.
Notice from spectre at time = 3.1245 ps during transient analysis `trans-000_trans', during task `MDLControl'.
    Found trapezoidal ringing on node I11.NM1:int_s.
Notice from spectre at time = 4.3316 ps during transient analysis `trans-000_trans', during task `MDLControl'.
    Found trapezoidal ringing on node I11.NM1:int_s.
Notice from spectre at time = 6.30086 ps during transient analysis `trans-000_trans', during task `MDLControl'.
    Found trapezoidal ringing on node I11.NM1:int_s.
Notice from spectre at time = 9.55024 ps during transient analysis `trans-000_trans', during task `MDLControl'.
    Found trapezoidal ringing on node I11.NM1:int_s.
        Further occurrences of this notice will be suppressed.

......9......8....
`AutoStop = yes'. Analysis finished at 5 us.

Number of accepted tran steps =             213

Notice from spectre during transient analysis `trans-000_trans', during task `MDLControl'.
    Trapezoidal ringing is detected during tran analysis.
        Please use method=trap for better results and performance.


Maximum value achieved for any signal of each quantity: 
V: V(I11.PM0:int_s) = 410.6 mV
I: I(V1:p) = 275.7 uA
If your circuit contains signals of the same quantity that are vastly different in size (such as high voltage circuitry combined with low voltage control circuitry), you should consider specifying global option `bin_relref=yes'.

~~~~~~~~~~~~~~~~~~~~~~~~~~~~~~~~~
Post-Transient Simulation Summary
~~~~~~~~~~~~~~~~~~~~~~~~~~~~~~~~~
   -   To further speed up simulation, consider
          add ++aps on command line
~~~~~~~~~~~~~~~~~~~~~~~~~~~~~~~~~


During simulation, the CPU load for active processors is :
         0 (27.8 %)      1 (15.3 %)      2 (10.0 %)      3 (52.0 %)
        Total: 105.1%
Initial condition solution time: CPU = 1 ms, elapsed = 499.964 us.
Intrinsic tran analysis time:    CPU = 32.995 ms, elapsed = 71.5311 ms.
Total time required for tran analysis `trans-000_trans': CPU = 36.995 ms, elapsed = 74.4312 ms.
Time accumulated: CPU = 1.86972 s, elapsed = 2.92246 s.
Peak resident memory used = 131 Mbytes.


Notice from spectre during task `MDLControl'.
    83 notices suppressed.


**************************************************
DC Analysis `dcs-000_dcs': V1:dc = (0 V -> 300 mV)
**************************************************

Opening the PSF file ./input.raw/dcs-000_dcs.dc ...
Important parameter values:
    reltol = 1e-03
    abstol(V) = 1 uV
    abstol(I) = 1 pA
    temp = 27 C
    tnom = 27 C
    tempeffects = all
    gmindc = 1 pS
    dcs-000_dcs: dc = 12 mV          (4 %), step = 6 mV            (2 %)
    dcs-000_dcs: dc = 18 mV          (6 %), step = 6 mV            (2 %)
    dcs-000_dcs: dc = 24 mV          (8 %), step = 6 mV            (2 %)
    dcs-000_dcs: dc = 30 mV         (10 %), step = 6 mV            (2 %)
    dcs-000_dcs: dc = 36 mV         (12 %), step = 6 mV            (2 %)
    dcs-000_dcs: dc = 42 mV         (14 %), step = 6 mV            (2 %)
    dcs-000_dcs: dc = 48 mV         (16 %), step = 6 mV            (2 %)
    dcs-000_dcs: dc = 54 mV         (18 %), step = 6 mV            (2 %)
    dcs-000_dcs: dc = 60 mV         (20 %), step = 6 mV            (2 %)
    dcs-000_dcs: dc = 66 mV         (22 %), step = 6 mV            (2 %)
    dcs-000_dcs: dc = 72 mV         (24 %), step = 6 mV            (2 %)
    dcs-000_dcs: dc = 78 mV         (26 %), step = 6 mV            (2 %)
    dcs-000_dcs: dc = 84 mV         (28 %), step = 6 mV            (2 %)
    dcs-000_dcs: dc = 90 mV         (30 %), step = 6 mV            (2 %)
    dcs-000_dcs: dc = 96 mV         (32 %), step = 6 mV            (2 %)
    dcs-000_dcs: dc = 102 mV        (34 %), step = 6 mV            (2 %)
    dcs-000_dcs: dc = 108 mV        (36 %), step = 6 mV            (2 %)
    dcs-000_dcs: dc = 114 mV        (38 %), step = 6 mV            (2 %)
    dcs-000_dcs: dc = 120 mV        (40 %), step = 6 mV            (2 %)
    dcs-000_dcs: dc = 126 mV        (42 %), step = 6 mV            (2 %)
    dcs-000_dcs: dc = 132 mV        (44 %), step = 6 mV            (2 %)
    dcs-000_dcs: dc = 138 mV        (46 %), step = 6 mV            (2 %)
    dcs-000_dcs: dc = 144 mV        (48 %), step = 6 mV            (2 %)
    dcs-000_dcs: dc = 150 mV        (50 %), step = 6 mV            (2 %)
    dcs-000_dcs: dc = 156 mV        (52 %), step = 6 mV            (2 %)
    dcs-000_dcs: dc = 162 mV        (54 %), step = 6 mV            (2 %)
    dcs-000_dcs: dc = 168 mV        (56 %), step = 6 mV            (2 %)
    dcs-000_dcs: dc = 174 mV        (58 %), step = 6 mV            (2 %)
    dcs-000_dcs: dc = 180 mV        (60 %), step = 6 mV            (2 %)
    dcs-000_dcs: dc = 186 mV        (62 %), step = 6 mV            (2 %)
    dcs-000_dcs: dc = 192 mV        (64 %), step = 6 mV            (2 %)
    dcs-000_dcs: dc = 198 mV        (66 %), step = 6 mV            (2 %)
    dcs-000_dcs: dc = 204 mV        (68 %), step = 6 mV            (2 %)
    dcs-000_dcs: dc = 210 mV        (70 %), step = 6 mV            (2 %)
    dcs-000_dcs: dc = 216 mV        (72 %), step = 6 mV            (2 %)
    dcs-000_dcs: dc = 222 mV        (74 %), step = 6 mV            (2 %)
    dcs-000_dcs: dc = 228 mV        (76 %), step = 6 mV            (2 %)
    dcs-000_dcs: dc = 234 mV        (78 %), step = 6 mV            (2 %)
    dcs-000_dcs: dc = 240 mV        (80 %), step = 6 mV            (2 %)
    dcs-000_dcs: dc = 246 mV        (82 %), step = 6 mV            (2 %)
    dcs-000_dcs: dc = 252 mV        (84 %), step = 6 mV            (2 %)
    dcs-000_dcs: dc = 258 mV        (86 %), step = 6 mV            (2 %)
    dcs-000_dcs: dc = 264 mV        (88 %), step = 6 mV            (2 %)
    dcs-000_dcs: dc = 270 mV        (90 %), step = 6 mV            (2 %)
    dcs-000_dcs: dc = 276 mV        (92 %), step = 6 mV            (2 %)
    dcs-000_dcs: dc = 282 mV        (94 %), step = 6 mV            (2 %)
    dcs-000_dcs: dc = 288 mV        (96 %), step = 6 mV            (2 %)
    dcs-000_dcs: dc = 294 mV        (98 %), step = 6 mV            (2 %)

Notice from spectre at dc = 300 mV during DC analysis `dcs-000_dcs', during task `MDLControl'.
    GminDC = 1 pS is large enough to noticeably affect the DC solution.
        dV(I11.PM1:int_d) = 61.12 uV
        Use the `gmin_check' option to eliminate or expand this report.

    dcs-000_dcs: dc = 300 mV       (100 %), step = 6 mV            (2 %)

Maximum value achieved for any signal of each quantity: 
V: V(net3) = 300 mV
I: I(V0:p) = 284.1 pA
DC simulation time: CPU = 16.998 ms, elapsed = 46.555 ms.

Notice from spectre at dc = 300 mV during DC analysis `dcs-000_dcs', during task `MDLControl'.
    The value of parameter 'dc' has been reset to the original value 0.

Total time required for dc analysis `dcs-000_dcs': CPU = 16.998 ms, elapsed = 46.602 ms.
Time accumulated: CPU = 1.88771 s, elapsed = 2.96978 s.
Peak resident memory used = 131 Mbytes.


Warning from spectre.
    WARNING (SPECTRE-17101): The value 'psf' specified for the 'checklimitdest' option will no longer be supported in future releases. Use 'spectre -h' to see other recommended values for the 'checklimitdest' option.
    WARNING (SPECTRE-17101): The value 'psf' specified for the 'checklimitdest' option will no longer be supported in future releases. Use 'spectre -h' to see other recommended values for the 'checklimitdest' option.


***********************************************************
Transient Analysis `trans-000_trans': time = (0 s -> 20 us)
***********************************************************
DC simulation time: CPU = 0 s, elapsed = 413.895 us.

Opening the PSFXL file ./input.raw/trans-000_trans.tran.tran ...
Important parameter values:
    start = 0 s
    outputstart = 0 s
    stop = 20 us
    step = 20 ns
    maxstep = 400 ns
    ic = all
    useprevic = no
    skipdc = no
    reltol = 1e-03
    abstol(V) = 1 uV
    abstol(I) = 1 pA
    temp = 27 C
    tnom = 27 C
    tempeffects = all
    errpreset = moderate
    method = traponly
    lteratio = 3.5
    relref = sigglobal
    cmin = 0 F
    gmin = 1 pS


Output and IC/nodeset summary:
                 save   20      (current)
                 save   13      (voltage)
                 others 6       


Notice from spectre at time = 2.36958 ps during transient analysis `trans-000_trans', during task `MDLControl'.
    Found trapezoidal ringing on node I11.NM1:int_s.
Notice from spectre at time = 3.10153 ps during transient analysis `trans-000_trans', during task `MDLControl'.
    Found trapezoidal ringing on node I11.NM1:int_s.
Notice from spectre at time = 4.29348 ps during transient analysis `trans-000_trans', during task `MDLControl'.
    Found trapezoidal ringing on node I11.NM1:int_s.
Notice from spectre at time = 6.23924 ps during transient analysis `trans-000_trans', during task `MDLControl'.
    Found trapezoidal ringing on node I11.NM1:int_s.
Notice from spectre at time = 9.45238 ps during transient analysis `trans-000_trans', during task `MDLControl'.
    Found trapezoidal ringing on node I11.NM1:int_s.
        Further occurrences of this notice will be suppressed.

......9......8....
`AutoStop = yes'. Analysis finished at 5 us.

Number of accepted tran steps =             219

Notice from spectre during transient analysis `trans-000_trans', during task `MDLControl'.
    Trapezoidal ringing is detected during tran analysis.
        Please use method=trap for better results and performance.


Maximum value achieved for any signal of each quantity: 
V: V(I11.PM0:int_s) = 410.6 mV
I: I(V1:p) = 275 uA
If your circuit contains signals of the same quantity that are vastly different in size (such as high voltage circuitry combined with low voltage control circuitry), you should consider specifying global option `bin_relref=yes'.

~~~~~~~~~~~~~~~~~~~~~~~~~~~~~~~~~
Post-Transient Simulation Summary
~~~~~~~~~~~~~~~~~~~~~~~~~~~~~~~~~
   -   To further speed up simulation, consider
          add ++aps on command line
~~~~~~~~~~~~~~~~~~~~~~~~~~~~~~~~~


During simulation, the CPU load for active processors is :
         0 (30.0 %)      1 (16.6 %)      2 (10.2 %)      3 (50.8 %)
        Total: 107.7%
Initial condition solution time: CPU = 0 s, elapsed = 609.875 us.
Intrinsic tran analysis time:    CPU = 41.994 ms, elapsed = 75.563 ms.
Total time required for tran analysis `trans-000_trans': CPU = 43.993 ms, elapsed = 78.5449 ms.
Time accumulated: CPU = 1.9467 s, elapsed = 3.06383 s.
Peak resident memory used = 131 Mbytes.


Notice from spectre during task `MDLControl'.
    76 notices suppressed.


**************************************************
DC Analysis `dcs-000_dcs': V1:dc = (0 V -> 300 mV)
**************************************************

Opening the PSF file ./input.raw/dcs-000_dcs.dc ...
Important parameter values:
    reltol = 1e-03
    abstol(V) = 1 uV
    abstol(I) = 1 pA
    temp = 27 C
    tnom = 27 C
    tempeffects = all
    gmindc = 1 pS
    dcs-000_dcs: dc = 12 mV          (4 %), step = 6 mV            (2 %)
    dcs-000_dcs: dc = 18 mV          (6 %), step = 6 mV            (2 %)
    dcs-000_dcs: dc = 24 mV          (8 %), step = 6 mV            (2 %)
    dcs-000_dcs: dc = 30 mV         (10 %), step = 6 mV            (2 %)
    dcs-000_dcs: dc = 36 mV         (12 %), step = 6 mV            (2 %)
    dcs-000_dcs: dc = 42 mV         (14 %), step = 6 mV            (2 %)
    dcs-000_dcs: dc = 48 mV         (16 %), step = 6 mV            (2 %)
    dcs-000_dcs: dc = 54 mV         (18 %), step = 6 mV            (2 %)
    dcs-000_dcs: dc = 60 mV         (20 %), step = 6 mV            (2 %)
    dcs-000_dcs: dc = 66 mV         (22 %), step = 6 mV            (2 %)
    dcs-000_dcs: dc = 72 mV         (24 %), step = 6 mV            (2 %)
    dcs-000_dcs: dc = 78 mV         (26 %), step = 6 mV            (2 %)
    dcs-000_dcs: dc = 84 mV         (28 %), step = 6 mV            (2 %)
    dcs-000_dcs: dc = 90 mV         (30 %), step = 6 mV            (2 %)
    dcs-000_dcs: dc = 96 mV         (32 %), step = 6 mV            (2 %)
    dcs-000_dcs: dc = 102 mV        (34 %), step = 6 mV            (2 %)
    dcs-000_dcs: dc = 108 mV        (36 %), step = 6 mV            (2 %)
    dcs-000_dcs: dc = 114 mV        (38 %), step = 6 mV            (2 %)
    dcs-000_dcs: dc = 120 mV        (40 %), step = 6 mV            (2 %)
    dcs-000_dcs: dc = 126 mV        (42 %), step = 6 mV            (2 %)
    dcs-000_dcs: dc = 132 mV        (44 %), step = 6 mV            (2 %)
    dcs-000_dcs: dc = 138 mV        (46 %), step = 6 mV            (2 %)
    dcs-000_dcs: dc = 144 mV        (48 %), step = 6 mV            (2 %)
    dcs-000_dcs: dc = 150 mV        (50 %), step = 6 mV            (2 %)
    dcs-000_dcs: dc = 156 mV        (52 %), step = 6 mV            (2 %)
    dcs-000_dcs: dc = 162 mV        (54 %), step = 6 mV            (2 %)
    dcs-000_dcs: dc = 168 mV        (56 %), step = 6 mV            (2 %)
    dcs-000_dcs: dc = 174 mV        (58 %), step = 6 mV            (2 %)
    dcs-000_dcs: dc = 180 mV        (60 %), step = 6 mV            (2 %)
    dcs-000_dcs: dc = 186 mV        (62 %), step = 6 mV            (2 %)
    dcs-000_dcs: dc = 192 mV        (64 %), step = 6 mV            (2 %)
    dcs-000_dcs: dc = 198 mV        (66 %), step = 6 mV            (2 %)
    dcs-000_dcs: dc = 204 mV        (68 %), step = 6 mV            (2 %)
    dcs-000_dcs: dc = 210 mV        (70 %), step = 6 mV            (2 %)
    dcs-000_dcs: dc = 216 mV        (72 %), step = 6 mV            (2 %)
    dcs-000_dcs: dc = 222 mV        (74 %), step = 6 mV            (2 %)
    dcs-000_dcs: dc = 228 mV        (76 %), step = 6 mV            (2 %)
    dcs-000_dcs: dc = 234 mV        (78 %), step = 6 mV            (2 %)
    dcs-000_dcs: dc = 240 mV        (80 %), step = 6 mV            (2 %)
    dcs-000_dcs: dc = 246 mV        (82 %), step = 6 mV            (2 %)
    dcs-000_dcs: dc = 252 mV        (84 %), step = 6 mV            (2 %)
    dcs-000_dcs: dc = 258 mV        (86 %), step = 6 mV            (2 %)
    dcs-000_dcs: dc = 264 mV        (88 %), step = 6 mV            (2 %)
    dcs-000_dcs: dc = 270 mV        (90 %), step = 6 mV            (2 %)
    dcs-000_dcs: dc = 276 mV        (92 %), step = 6 mV            (2 %)
    dcs-000_dcs: dc = 282 mV        (94 %), step = 6 mV            (2 %)
    dcs-000_dcs: dc = 288 mV        (96 %), step = 6 mV            (2 %)
    dcs-000_dcs: dc = 294 mV        (98 %), step = 6 mV            (2 %)
    dcs-000_dcs: dc = 300 mV       (100 %), step = 6 mV            (2 %)

Maximum value achieved for any signal of each quantity: 
V: V(net3) = 300 mV
I: I(V0:p) = 350.5 pA
DC simulation time: CPU = 20.997 ms, elapsed = 50.7071 ms.

Notice from spectre at dc = 300 mV during DC analysis `dcs-000_dcs', during task `MDLControl'.
    The value of parameter 'dc' has been reset to the original value 0.

Total time required for dc analysis `dcs-000_dcs': CPU = 20.997 ms, elapsed = 50.75 ms.
Time accumulated: CPU = 1.9677 s, elapsed = 3.11529 s.
Peak resident memory used = 131 Mbytes.


Warning from spectre.
    WARNING (SPECTRE-17101): The value 'psf' specified for the 'checklimitdest' option will no longer be supported in future releases. Use 'spectre -h' to see other recommended values for the 'checklimitdest' option.
    WARNING (SPECTRE-17101): The value 'psf' specified for the 'checklimitdest' option will no longer be supported in future releases. Use 'spectre -h' to see other recommended values for the 'checklimitdest' option.
    WARNING (SPECTRE-17101): The value 'psf' specified for the 'checklimitdest' option will no longer be supported in future releases. Use 'spectre -h' to see other recommended values for the 'checklimitdest' option.
    WARNING (SPECTRE-17101): The value 'psf' specified for the 'checklimitdest' option will no longer be supported in future releases. Use 'spectre -h' to see other recommended values for the 'checklimitdest' option.


***********************************************************
Transient Analysis `trans-000_trans': time = (0 s -> 20 us)
***********************************************************
DC simulation time: CPU = 0 s, elapsed = 438.929 us.

Opening the PSFXL file ./input.raw/trans-000_trans.tran.tran ...
Important parameter values:
    start = 0 s
    outputstart = 0 s
    stop = 20 us
    step = 20 ns
    maxstep = 400 ns
    ic = all
    useprevic = no
    skipdc = no
    reltol = 1e-03
    abstol(V) = 1 uV
    abstol(I) = 1 pA
    temp = 27 C
    tnom = 27 C
    tempeffects = all
    errpreset = moderate
    method = traponly
    lteratio = 3.5
    relref = sigglobal
    cmin = 0 F
    gmin = 1 pS


Output and IC/nodeset summary:
                 save   20      (current)
                 save   13      (voltage)
                 others 6       


Notice from spectre at time = 2.75879 ps during transient analysis `trans-000_trans', during task `MDLControl'.
    Found trapezoidal ringing on node I11.NM1:int_s.
Notice from spectre at time = 3.80117 ps during transient analysis `trans-000_trans', during task `MDLControl'.
    Found trapezoidal ringing on node I11.NM1:int_s.
Notice from spectre at time = 5.52693 ps during transient analysis `trans-000_trans', during task `MDLControl'.
    Found trapezoidal ringing on node I11.NM1:int_s.
Notice from spectre at time = 8.37064 ps during transient analysis `trans-000_trans', during task `MDLControl'.
    Found trapezoidal ringing on node I11.NM1:int_s.
Notice from spectre at time = 13.0985 ps during transient analysis `trans-000_trans', during task `MDLControl'.
    Found trapezoidal ringing on node I11.NM1:int_s.
        Further occurrences of this notice will be suppressed.

......9......8....
`AutoStop = yes'. Analysis finished at 5 us.

Number of accepted tran steps =             210

Notice from spectre during transient analysis `trans-000_trans', during task `MDLControl'.
    Trapezoidal ringing is detected during tran analysis.
        Please use method=trap for better results and performance.


Maximum value achieved for any signal of each quantity: 
V: V(I11.PM1:int_d) = 414.8 mV
I: I(V1:p) = 940.2 uA
If your circuit contains signals of the same quantity that are vastly different in size (such as high voltage circuitry combined with low voltage control circuitry), you should consider specifying global option `bin_relref=yes'.

~~~~~~~~~~~~~~~~~~~~~~~~~~~~~~~~~
Post-Transient Simulation Summary
~~~~~~~~~~~~~~~~~~~~~~~~~~~~~~~~~
   -   To further speed up simulation, consider
          add ++aps on command line
~~~~~~~~~~~~~~~~~~~~~~~~~~~~~~~~~


During simulation, the CPU load for active processors is :
         0 (32.0 %)      1 (16.8 %)      2 (10.4 %)      3 (49.7 %)
        Total: 108.9%
Initial condition solution time: CPU = 0 s, elapsed = 481.844 us.
Intrinsic tran analysis time:    CPU = 34.995 ms, elapsed = 60.5469 ms.
Total time required for tran analysis `trans-000_trans': CPU = 36.995 ms, elapsed = 63.3621 ms.
Time accumulated: CPU = 2.03469 s, elapsed = 3.20875 s.
Peak resident memory used = 131 Mbytes.


Notice from spectre during task `MDLControl'.
    86 notices suppressed.


**************************************************
DC Analysis `dcs-000_dcs': V1:dc = (0 V -> 300 mV)
**************************************************

Opening the PSF file ./input.raw/dcs-000_dcs.dc ...
Important parameter values:
    reltol = 1e-03
    abstol(V) = 1 uV
    abstol(I) = 1 pA
    temp = 27 C
    tnom = 27 C
    tempeffects = all
    gmindc = 1 pS
    dcs-000_dcs: dc = 12 mV          (4 %), step = 6 mV            (2 %)
    dcs-000_dcs: dc = 18 mV          (6 %), step = 6 mV            (2 %)
    dcs-000_dcs: dc = 24 mV          (8 %), step = 6 mV            (2 %)
    dcs-000_dcs: dc = 30 mV         (10 %), step = 6 mV            (2 %)
    dcs-000_dcs: dc = 36 mV         (12 %), step = 6 mV            (2 %)
    dcs-000_dcs: dc = 42 mV         (14 %), step = 6 mV            (2 %)
    dcs-000_dcs: dc = 48 mV         (16 %), step = 6 mV            (2 %)
    dcs-000_dcs: dc = 54 mV         (18 %), step = 6 mV            (2 %)
    dcs-000_dcs: dc = 60 mV         (20 %), step = 6 mV            (2 %)
    dcs-000_dcs: dc = 66 mV         (22 %), step = 6 mV            (2 %)
    dcs-000_dcs: dc = 72 mV         (24 %), step = 6 mV            (2 %)
    dcs-000_dcs: dc = 78 mV         (26 %), step = 6 mV            (2 %)
    dcs-000_dcs: dc = 84 mV         (28 %), step = 6 mV            (2 %)
    dcs-000_dcs: dc = 90 mV         (30 %), step = 6 mV            (2 %)
    dcs-000_dcs: dc = 96 mV         (32 %), step = 6 mV            (2 %)
    dcs-000_dcs: dc = 102 mV        (34 %), step = 6 mV            (2 %)
    dcs-000_dcs: dc = 108 mV        (36 %), step = 6 mV            (2 %)
    dcs-000_dcs: dc = 114 mV        (38 %), step = 6 mV            (2 %)
    dcs-000_dcs: dc = 120 mV        (40 %), step = 6 mV            (2 %)
    dcs-000_dcs: dc = 126 mV        (42 %), step = 6 mV            (2 %)
    dcs-000_dcs: dc = 132 mV        (44 %), step = 6 mV            (2 %)
    dcs-000_dcs: dc = 138 mV        (46 %), step = 6 mV            (2 %)
    dcs-000_dcs: dc = 144 mV        (48 %), step = 6 mV            (2 %)
    dcs-000_dcs: dc = 150 mV        (50 %), step = 6 mV            (2 %)
    dcs-000_dcs: dc = 156 mV        (52 %), step = 6 mV            (2 %)
    dcs-000_dcs: dc = 162 mV        (54 %), step = 6 mV            (2 %)
    dcs-000_dcs: dc = 168 mV        (56 %), step = 6 mV            (2 %)
    dcs-000_dcs: dc = 174 mV        (58 %), step = 6 mV            (2 %)
    dcs-000_dcs: dc = 180 mV        (60 %), step = 6 mV            (2 %)
    dcs-000_dcs: dc = 186 mV        (62 %), step = 6 mV            (2 %)
    dcs-000_dcs: dc = 192 mV        (64 %), step = 6 mV            (2 %)
    dcs-000_dcs: dc = 198 mV        (66 %), step = 6 mV            (2 %)
    dcs-000_dcs: dc = 204 mV        (68 %), step = 6 mV            (2 %)
    dcs-000_dcs: dc = 210 mV        (70 %), step = 6 mV            (2 %)
    dcs-000_dcs: dc = 216 mV        (72 %), step = 6 mV            (2 %)
    dcs-000_dcs: dc = 222 mV        (74 %), step = 6 mV            (2 %)
    dcs-000_dcs: dc = 228 mV        (76 %), step = 6 mV            (2 %)
    dcs-000_dcs: dc = 234 mV        (78 %), step = 6 mV            (2 %)
    dcs-000_dcs: dc = 240 mV        (80 %), step = 6 mV            (2 %)
    dcs-000_dcs: dc = 246 mV        (82 %), step = 6 mV            (2 %)
    dcs-000_dcs: dc = 252 mV        (84 %), step = 6 mV            (2 %)
    dcs-000_dcs: dc = 258 mV        (86 %), step = 6 mV            (2 %)

Notice from spectre at dc = 264 mV during DC analysis `dcs-000_dcs', during task `MDLControl'.
    GminDC = 1 pS is large enough to noticeably affect the DC solution.
        dV(I11.PM1:int_d) = 83.769 uV
        Use the `gmin_check' option to eliminate or expand this report.

    dcs-000_dcs: dc = 264 mV        (88 %), step = 6 mV            (2 %)

Notice from spectre at dc = 270 mV during DC analysis `dcs-000_dcs', during task `MDLControl'.
    GminDC = 1 pS is large enough to noticeably affect the DC solution.
        dV(I11.PM1:int_d) = 102.678 uV
        Use the `gmin_check' option to eliminate or expand this report.

    dcs-000_dcs: dc = 270 mV        (90 %), step = 6 mV            (2 %)

Notice from spectre at dc = 276 mV during DC analysis `dcs-000_dcs', during task `MDLControl'.
    GminDC = 1 pS is large enough to noticeably affect the DC solution.
        dV(I11.PM1:int_d) = 125.544 uV
        Use the `gmin_check' option to eliminate or expand this report.

    dcs-000_dcs: dc = 276 mV        (92 %), step = 6 mV            (2 %)

Notice from spectre at dc = 282 mV during DC analysis `dcs-000_dcs', during task `MDLControl'.
    GminDC = 1 pS is large enough to noticeably affect the DC solution.
        dV(I11.PM1:int_d) = 153.063 uV
        Use the `gmin_check' option to eliminate or expand this report.

    dcs-000_dcs: dc = 282 mV        (94 %), step = 6 mV            (2 %)

Notice from spectre at dc = 288 mV during DC analysis `dcs-000_dcs', during task `MDLControl'.
    GminDC = 1 pS is large enough to noticeably affect the DC solution.
        Further occurrences of this notice will be suppressed.
        dV(I11.PM1:int_d) = 185.991 uV
        Further occurrences of this notice will be suppressed.
        Use the `gmin_check' option to eliminate or expand this report.
        Further occurrences of this notice will be suppressed.

    dcs-000_dcs: dc = 288 mV        (96 %), step = 6 mV            (2 %)
    dcs-000_dcs: dc = 294 mV        (98 %), step = 6 mV            (2 %)
    dcs-000_dcs: dc = 300 mV       (100 %), step = 6 mV            (2 %)

Maximum value achieved for any signal of each quantity: 
V: V(net3) = 300 mV
I: I(V0:p) = 57.37 pA
DC simulation time: CPU = 19.996 ms, elapsed = 55.4261 ms.

Notice from spectre at dc = 300 mV during DC analysis `dcs-000_dcs', during task `MDLControl'.
    The value of parameter 'dc' has been reset to the original value 0.

Total time required for dc analysis `dcs-000_dcs': CPU = 19.996 ms, elapsed = 55.4678 ms.
Time accumulated: CPU = 2.05469 s, elapsed = 3.26488 s.
Peak resident memory used = 131 Mbytes.


Notice from spectre during task `MDLControl'.
    2 notices suppressed.
Warning from spectre.
    WARNING (SPECTRE-17101): The value 'psf' specified for the 'checklimitdest' option will no longer be supported in future releases. Use 'spectre -h' to see other recommended values for the 'checklimitdest' option.
    WARNING (SPECTRE-17101): The value 'psf' specified for the 'checklimitdest' option will no longer be supported in future releases. Use 'spectre -h' to see other recommended values for the 'checklimitdest' option.


***********************************************************
Transient Analysis `trans-000_trans': time = (0 s -> 20 us)
***********************************************************
DC simulation time: CPU = 0 s, elapsed = 428.915 us.

Opening the PSFXL file ./input.raw/trans-000_trans.tran.tran ...
Important parameter values:
    start = 0 s
    outputstart = 0 s
    stop = 20 us
    step = 20 ns
    maxstep = 400 ns
    ic = all
    useprevic = no
    skipdc = no
    reltol = 1e-03
    abstol(V) = 1 uV
    abstol(I) = 1 pA
    temp = 27 C
    tnom = 27 C
    tempeffects = all
    errpreset = moderate
    method = traponly
    lteratio = 3.5
    relref = sigglobal
    cmin = 0 F
    gmin = 1 pS


Output and IC/nodeset summary:
                 save   20      (current)
                 save   13      (voltage)
                 others 6       


Notice from spectre at time = 2.31356 ps during transient analysis `trans-000_trans', during task `MDLControl'.
    Found trapezoidal ringing on node I11.NM1:int_s.
Notice from spectre at time = 3.02025 ps during transient analysis `trans-000_trans', during task `MDLControl'.
    Found trapezoidal ringing on node I11.NM1:int_s.
Notice from spectre at time = 4.18767 ps during transient analysis `trans-000_trans', during task `MDLControl'.
    Found trapezoidal ringing on node I11.NM1:int_s.
Notice from spectre at time = 6.12661 ps during transient analysis `trans-000_trans', during task `MDLControl'.
    Found trapezoidal ringing on node I11.NM1:int_s.
Notice from spectre at time = 9.39032 ps during transient analysis `trans-000_trans', during task `MDLControl'.
    Found trapezoidal ringing on node I11.NM1:int_s.
        Further occurrences of this notice will be suppressed.

......9......8....
`AutoStop = yes'. Analysis finished at 5 us.

Number of accepted tran steps =             206

Notice from spectre during transient analysis `trans-000_trans', during task `MDLControl'.
    Trapezoidal ringing is detected during tran analysis.
        Please use method=trap for better results and performance.


Maximum value achieved for any signal of each quantity: 
V: V(I11.PM1:int_d) = 414.8 mV
I: I(V0:p) = 820.2 uA
If your circuit contains signals of the same quantity that are vastly different in size (such as high voltage circuitry combined with low voltage control circuitry), you should consider specifying global option `bin_relref=yes'.

~~~~~~~~~~~~~~~~~~~~~~~~~~~~~~~~~
Post-Transient Simulation Summary
~~~~~~~~~~~~~~~~~~~~~~~~~~~~~~~~~
   -   To further speed up simulation, consider
          add ++aps on command line
~~~~~~~~~~~~~~~~~~~~~~~~~~~~~~~~~


During simulation, the CPU load for active processors is :
         0 (33.6 %)      1 (17.2 %)      2 (10.9 %)      3 (48.3 %)
        Total: 110.1%
Initial condition solution time: CPU = 0 s, elapsed = 473.022 us.
Intrinsic tran analysis time:    CPU = 32.995 ms, elapsed = 64.5931 ms.
Total time required for tran analysis `trans-000_trans': CPU = 35.995 ms, elapsed = 67.4751 ms.
Time accumulated: CPU = 2.10768 s, elapsed = 3.34977 s.
Peak resident memory used = 131 Mbytes.


Notice from spectre during task `MDLControl'.
    79 notices suppressed.


**************************************************
DC Analysis `dcs-000_dcs': V1:dc = (0 V -> 300 mV)
**************************************************

Opening the PSF file ./input.raw/dcs-000_dcs.dc ...
Important parameter values:
    reltol = 1e-03
    abstol(V) = 1 uV
    abstol(I) = 1 pA
    temp = 27 C
    tnom = 27 C
    tempeffects = all
    gmindc = 1 pS
    dcs-000_dcs: dc = 12 mV          (4 %), step = 6 mV            (2 %)
    dcs-000_dcs: dc = 18 mV          (6 %), step = 6 mV            (2 %)
    dcs-000_dcs: dc = 24 mV          (8 %), step = 6 mV            (2 %)
    dcs-000_dcs: dc = 30 mV         (10 %), step = 6 mV            (2 %)
    dcs-000_dcs: dc = 36 mV         (12 %), step = 6 mV            (2 %)
    dcs-000_dcs: dc = 42 mV         (14 %), step = 6 mV            (2 %)
    dcs-000_dcs: dc = 48 mV         (16 %), step = 6 mV            (2 %)
    dcs-000_dcs: dc = 54 mV         (18 %), step = 6 mV            (2 %)
    dcs-000_dcs: dc = 60 mV         (20 %), step = 6 mV            (2 %)
    dcs-000_dcs: dc = 66 mV         (22 %), step = 6 mV            (2 %)
    dcs-000_dcs: dc = 72 mV         (24 %), step = 6 mV            (2 %)
    dcs-000_dcs: dc = 78 mV         (26 %), step = 6 mV            (2 %)
    dcs-000_dcs: dc = 84 mV         (28 %), step = 6 mV            (2 %)
    dcs-000_dcs: dc = 90 mV         (30 %), step = 6 mV            (2 %)
    dcs-000_dcs: dc = 96 mV         (32 %), step = 6 mV            (2 %)
    dcs-000_dcs: dc = 102 mV        (34 %), step = 6 mV            (2 %)
    dcs-000_dcs: dc = 108 mV        (36 %), step = 6 mV            (2 %)
    dcs-000_dcs: dc = 114 mV        (38 %), step = 6 mV            (2 %)
    dcs-000_dcs: dc = 120 mV        (40 %), step = 6 mV            (2 %)
    dcs-000_dcs: dc = 126 mV        (42 %), step = 6 mV            (2 %)
    dcs-000_dcs: dc = 132 mV        (44 %), step = 6 mV            (2 %)
    dcs-000_dcs: dc = 138 mV        (46 %), step = 6 mV            (2 %)
    dcs-000_dcs: dc = 144 mV        (48 %), step = 6 mV            (2 %)
    dcs-000_dcs: dc = 150 mV        (50 %), step = 6 mV            (2 %)
    dcs-000_dcs: dc = 156 mV        (52 %), step = 6 mV            (2 %)
    dcs-000_dcs: dc = 162 mV        (54 %), step = 6 mV            (2 %)
    dcs-000_dcs: dc = 168 mV        (56 %), step = 6 mV            (2 %)
    dcs-000_dcs: dc = 174 mV        (58 %), step = 6 mV            (2 %)
    dcs-000_dcs: dc = 180 mV        (60 %), step = 6 mV            (2 %)
    dcs-000_dcs: dc = 186 mV        (62 %), step = 6 mV            (2 %)
    dcs-000_dcs: dc = 192 mV        (64 %), step = 6 mV            (2 %)
    dcs-000_dcs: dc = 198 mV        (66 %), step = 6 mV            (2 %)
    dcs-000_dcs: dc = 204 mV        (68 %), step = 6 mV            (2 %)
    dcs-000_dcs: dc = 210 mV        (70 %), step = 6 mV            (2 %)
    dcs-000_dcs: dc = 216 mV        (72 %), step = 6 mV            (2 %)
    dcs-000_dcs: dc = 222 mV        (74 %), step = 6 mV            (2 %)
    dcs-000_dcs: dc = 228 mV        (76 %), step = 6 mV            (2 %)
    dcs-000_dcs: dc = 234 mV        (78 %), step = 6 mV            (2 %)
    dcs-000_dcs: dc = 240 mV        (80 %), step = 6 mV            (2 %)
    dcs-000_dcs: dc = 246 mV        (82 %), step = 6 mV            (2 %)
    dcs-000_dcs: dc = 252 mV        (84 %), step = 6 mV            (2 %)
    dcs-000_dcs: dc = 258 mV        (86 %), step = 6 mV            (2 %)

Notice from spectre at dc = 264 mV during DC analysis `dcs-000_dcs', during task `MDLControl'.
    GminDC = 1 pS is large enough to noticeably affect the DC solution.
        dV(I11.PM1:int_d) = 83.7922 uV
        Use the `gmin_check' option to eliminate or expand this report.

    dcs-000_dcs: dc = 264 mV        (88 %), step = 6 mV            (2 %)

Notice from spectre at dc = 270 mV during DC analysis `dcs-000_dcs', during task `MDLControl'.
    GminDC = 1 pS is large enough to noticeably affect the DC solution.
        dV(I11.PM1:int_d) = 102.699 uV
        Use the `gmin_check' option to eliminate or expand this report.

    dcs-000_dcs: dc = 270 mV        (90 %), step = 6 mV            (2 %)

Notice from spectre at dc = 276 mV during DC analysis `dcs-000_dcs', during task `MDLControl'.
    GminDC = 1 pS is large enough to noticeably affect the DC solution.
        dV(I11.PM1:int_d) = 125.563 uV
        Use the `gmin_check' option to eliminate or expand this report.

    dcs-000_dcs: dc = 276 mV        (92 %), step = 6 mV            (2 %)

Notice from spectre at dc = 282 mV during DC analysis `dcs-000_dcs', during task `MDLControl'.
    GminDC = 1 pS is large enough to noticeably affect the DC solution.
        dV(I11.PM1:int_d) = 153.08 uV
        Use the `gmin_check' option to eliminate or expand this report.

    dcs-000_dcs: dc = 282 mV        (94 %), step = 6 mV            (2 %)

Notice from spectre at dc = 288 mV during DC analysis `dcs-000_dcs', during task `MDLControl'.
    GminDC = 1 pS is large enough to noticeably affect the DC solution.
        Further occurrences of this notice will be suppressed.
        dV(I11.PM1:int_d) = 186.007 uV
        Further occurrences of this notice will be suppressed.
        Use the `gmin_check' option to eliminate or expand this report.
        Further occurrences of this notice will be suppressed.

    dcs-000_dcs: dc = 288 mV        (96 %), step = 6 mV            (2 %)
    dcs-000_dcs: dc = 294 mV        (98 %), step = 6 mV            (2 %)
    dcs-000_dcs: dc = 300 mV       (100 %), step = 6 mV            (2 %)

Maximum value achieved for any signal of each quantity: 
V: V(net3) = 300 mV
I: I(V0:p) = 57.37 pA
DC simulation time: CPU = 22.997 ms, elapsed = 51.379 ms.

Notice from spectre at dc = 300 mV during DC analysis `dcs-000_dcs', during task `MDLControl'.
    The value of parameter 'dc' has been reset to the original value 0.

Total time required for dc analysis `dcs-000_dcs': CPU = 22.997 ms, elapsed = 51.4221 ms.
Time accumulated: CPU = 2.13068 s, elapsed = 3.40185 s.
Peak resident memory used = 131 Mbytes.


Notice from spectre during task `MDLControl'.
    2 notices suppressed.
Warning from spectre.
    WARNING (SPECTRE-17101): The value 'psf' specified for the 'checklimitdest' option will no longer be supported in future releases. Use 'spectre -h' to see other recommended values for the 'checklimitdest' option.


***********************************************************
Transient Analysis `trans-000_trans': time = (0 s -> 20 us)
***********************************************************
DC simulation time: CPU = 0 s, elapsed = 406.981 us.

Opening the PSFXL file ./input.raw/trans-000_trans.tran.tran ...
Important parameter values:
    start = 0 s
    outputstart = 0 s
    stop = 20 us
    step = 20 ns
    maxstep = 400 ns
    ic = all
    useprevic = no
    skipdc = no
    reltol = 1e-03
    abstol(V) = 1 uV
    abstol(I) = 1 pA
    temp = 27 C
    tnom = 27 C
    tempeffects = all
    errpreset = moderate
    method = traponly
    lteratio = 3.5
    relref = sigglobal
    cmin = 0 F
    gmin = 1 pS


Output and IC/nodeset summary:
                 save   20      (current)
                 save   13      (voltage)
                 others 6       


Notice from spectre at time = 2.3136 ps during transient analysis `trans-000_trans', during task `MDLControl'.
    Found trapezoidal ringing on node I11.NM1:int_s.
Notice from spectre at time = 3.02031 ps during transient analysis `trans-000_trans', during task `MDLControl'.
    Found trapezoidal ringing on node I11.NM1:int_s.
Notice from spectre at time = 4.18778 ps during transient analysis `trans-000_trans', during task `MDLControl'.
    Found trapezoidal ringing on node I11.NM1:int_s.
Notice from spectre at time = 6.12679 ps during transient analysis `trans-000_trans', during task `MDLControl'.
    Found trapezoidal ringing on node I11.NM1:int_s.
Notice from spectre at time = 9.39063 ps during transient analysis `trans-000_trans', during task `MDLControl'.
    Found trapezoidal ringing on node I11.NM1:int_s.
        Further occurrences of this notice will be suppressed.

......9......8....
`AutoStop = yes'. Analysis finished at 5 us.

Number of accepted tran steps =             206

Notice from spectre during transient analysis `trans-000_trans', during task `MDLControl'.
    Trapezoidal ringing is detected during tran analysis.
        Please use method=trap for better results and performance.


Maximum value achieved for any signal of each quantity: 
V: V(I11.PM1:int_d) = 414.8 mV
I: I(V0:p) = 846.4 uA
If your circuit contains signals of the same quantity that are vastly different in size (such as high voltage circuitry combined with low voltage control circuitry), you should consider specifying global option `bin_relref=yes'.

~~~~~~~~~~~~~~~~~~~~~~~~~~~~~~~~~
Post-Transient Simulation Summary
~~~~~~~~~~~~~~~~~~~~~~~~~~~~~~~~~
   -   To further speed up simulation, consider
          add ++aps on command line
~~~~~~~~~~~~~~~~~~~~~~~~~~~~~~~~~


During simulation, the CPU load for active processors is :
         0 (34.2 %)      1 (18.8 %)      2 (10.7 %)      3 (46.4 %)
        Total: 110.2%
Initial condition solution time: CPU = 0 s, elapsed = 450.85 us.
Intrinsic tran analysis time:    CPU = 35.994 ms, elapsed = 80.2879 ms.
Total time required for tran analysis `trans-000_trans': CPU = 38.994 ms, elapsed = 83.154 ms.
Time accumulated: CPU = 2.17867 s, elapsed = 3.49439 s.
Peak resident memory used = 131 Mbytes.


Notice from spectre during task `MDLControl'.
    77 notices suppressed.


**************************************************
DC Analysis `dcs-000_dcs': V1:dc = (0 V -> 300 mV)
**************************************************

Opening the PSF file ./input.raw/dcs-000_dcs.dc ...
Important parameter values:
    reltol = 1e-03
    abstol(V) = 1 uV
    abstol(I) = 1 pA
    temp = 27 C
    tnom = 27 C
    tempeffects = all
    gmindc = 1 pS
    dcs-000_dcs: dc = 12 mV          (4 %), step = 6 mV            (2 %)
    dcs-000_dcs: dc = 18 mV          (6 %), step = 6 mV            (2 %)
    dcs-000_dcs: dc = 24 mV          (8 %), step = 6 mV            (2 %)
    dcs-000_dcs: dc = 30 mV         (10 %), step = 6 mV            (2 %)
    dcs-000_dcs: dc = 36 mV         (12 %), step = 6 mV            (2 %)
    dcs-000_dcs: dc = 42 mV         (14 %), step = 6 mV            (2 %)
    dcs-000_dcs: dc = 48 mV         (16 %), step = 6 mV            (2 %)
    dcs-000_dcs: dc = 54 mV         (18 %), step = 6 mV            (2 %)
    dcs-000_dcs: dc = 60 mV         (20 %), step = 6 mV            (2 %)
    dcs-000_dcs: dc = 66 mV         (22 %), step = 6 mV            (2 %)
    dcs-000_dcs: dc = 72 mV         (24 %), step = 6 mV            (2 %)
    dcs-000_dcs: dc = 78 mV         (26 %), step = 6 mV            (2 %)
    dcs-000_dcs: dc = 84 mV         (28 %), step = 6 mV            (2 %)
    dcs-000_dcs: dc = 90 mV         (30 %), step = 6 mV            (2 %)
    dcs-000_dcs: dc = 96 mV         (32 %), step = 6 mV            (2 %)
    dcs-000_dcs: dc = 102 mV        (34 %), step = 6 mV            (2 %)
    dcs-000_dcs: dc = 108 mV        (36 %), step = 6 mV            (2 %)
    dcs-000_dcs: dc = 114 mV        (38 %), step = 6 mV            (2 %)
    dcs-000_dcs: dc = 120 mV        (40 %), step = 6 mV            (2 %)
    dcs-000_dcs: dc = 126 mV        (42 %), step = 6 mV            (2 %)
    dcs-000_dcs: dc = 132 mV        (44 %), step = 6 mV            (2 %)
    dcs-000_dcs: dc = 138 mV        (46 %), step = 6 mV            (2 %)
    dcs-000_dcs: dc = 144 mV        (48 %), step = 6 mV            (2 %)
    dcs-000_dcs: dc = 150 mV        (50 %), step = 6 mV            (2 %)
    dcs-000_dcs: dc = 156 mV        (52 %), step = 6 mV            (2 %)
    dcs-000_dcs: dc = 162 mV        (54 %), step = 6 mV            (2 %)
    dcs-000_dcs: dc = 168 mV        (56 %), step = 6 mV            (2 %)
    dcs-000_dcs: dc = 174 mV        (58 %), step = 6 mV            (2 %)
    dcs-000_dcs: dc = 180 mV        (60 %), step = 6 mV            (2 %)
    dcs-000_dcs: dc = 186 mV        (62 %), step = 6 mV            (2 %)
    dcs-000_dcs: dc = 192 mV        (64 %), step = 6 mV            (2 %)
    dcs-000_dcs: dc = 198 mV        (66 %), step = 6 mV            (2 %)
    dcs-000_dcs: dc = 204 mV        (68 %), step = 6 mV            (2 %)
    dcs-000_dcs: dc = 210 mV        (70 %), step = 6 mV            (2 %)
    dcs-000_dcs: dc = 216 mV        (72 %), step = 6 mV            (2 %)
    dcs-000_dcs: dc = 222 mV        (74 %), step = 6 mV            (2 %)
    dcs-000_dcs: dc = 228 mV        (76 %), step = 6 mV            (2 %)
    dcs-000_dcs: dc = 234 mV        (78 %), step = 6 mV            (2 %)
    dcs-000_dcs: dc = 240 mV        (80 %), step = 6 mV            (2 %)
    dcs-000_dcs: dc = 246 mV        (82 %), step = 6 mV            (2 %)
    dcs-000_dcs: dc = 252 mV        (84 %), step = 6 mV            (2 %)
    dcs-000_dcs: dc = 258 mV        (86 %), step = 6 mV            (2 %)
    dcs-000_dcs: dc = 264 mV        (88 %), step = 6 mV            (2 %)

Notice from spectre at dc = 270 mV during DC analysis `dcs-000_dcs', during task `MDLControl'.
    GminDC = 1 pS is large enough to noticeably affect the DC solution.
        dV(I11.PM1:int_d) = 99.5445 uV
        Use the `gmin_check' option to eliminate or expand this report.

    dcs-000_dcs: dc = 270 mV        (90 %), step = 6 mV            (2 %)

Notice from spectre at dc = 276 mV during DC analysis `dcs-000_dcs', during task `MDLControl'.
    GminDC = 1 pS is large enough to noticeably affect the DC solution.
        dV(I11.PM1:int_d) = 121.716 uV
        Use the `gmin_check' option to eliminate or expand this report.

    dcs-000_dcs: dc = 276 mV        (92 %), step = 6 mV            (2 %)

Notice from spectre at dc = 282 mV during DC analysis `dcs-000_dcs', during task `MDLControl'.
    GminDC = 1 pS is large enough to noticeably affect the DC solution.
        dV(I11.PM1:int_d) = 148.404 uV
        Use the `gmin_check' option to eliminate or expand this report.

    dcs-000_dcs: dc = 282 mV        (94 %), step = 6 mV            (2 %)

Notice from spectre at dc = 288 mV during DC analysis `dcs-000_dcs', during task `MDLControl'.
[...]

Total time required for dc analysis `dcs-000_dcs': CPU = 17.997 ms, elapsed = 52.9881 ms.
Time accumulated: CPU = 12.8081 s, elapsed = 25.2696 s.
Peak resident memory used = 134 Mbytes.


Notice from spectre during task `MDLControl'.
    3 notices suppressed.
Warning from spectre.
    WARNING (SPECTRE-17101): The value 'psf' specified for the 'checklimitdest' option will no longer be supported in future releases. Use 'spectre -h' to see other recommended values for the 'checklimitdest' option.
    WARNING (SPECTRE-17101): The value 'psf' specified for the 'checklimitdest' option will no longer be supported in future releases. Use 'spectre -h' to see other recommended values for the 'checklimitdest' option.
    WARNING (SPECTRE-17101): The value 'psf' specified for the 'checklimitdest' option will no longer be supported in future releases. Use 'spectre -h' to see other recommended values for the 'checklimitdest' option.


***********************************************************
Transient Analysis `trans-000_trans': time = (0 s -> 20 us)
***********************************************************
DC simulation time: CPU = 0 s, elapsed = 416.994 us.

Opening the PSFXL file ./input.raw/trans-000_trans.tran.tran ...
Important parameter values:
    start = 0 s
    outputstart = 0 s
    stop = 20 us
    step = 20 ns
    maxstep = 400 ns
    ic = all
    useprevic = no
    skipdc = no
    reltol = 1e-03
    abstol(V) = 1 uV
    abstol(I) = 1 pA
    temp = 27 C
    tnom = 27 C
    tempeffects = all
    errpreset = moderate
    method = traponly
    lteratio = 3.5
    relref = sigglobal
    cmin = 0 F
    gmin = 1 pS


Output and IC/nodeset summary:
                 save   20      (current)
                 save   13      (voltage)
                 others 6       


Notice from spectre at time = 2.30063 ps during transient analysis `trans-000_trans', during task `MDLControl'.
    Found trapezoidal ringing on node I11.NM1:int_s.
Notice from spectre at time = 3.01061 ps during transient analysis `trans-000_trans', during task `MDLControl'.
    Found trapezoidal ringing on node I11.NM1:int_s.
Notice from spectre at time = 4.19626 ps during transient analysis `trans-000_trans', during task `MDLControl'.
    Found trapezoidal ringing on node I11.NM1:int_s.
Notice from spectre at time = 6.18947 ps during transient analysis `trans-000_trans', during task `MDLControl'.
    Found trapezoidal ringing on node I11.NM1:int_s.
Notice from spectre at time = 9.58862 ps during transient analysis `trans-000_trans', during task `MDLControl'.
    Found trapezoidal ringing on node I11.NM1:int_s.
        Further occurrences of this notice will be suppressed.

......9......8....
`AutoStop = yes'. Analysis finished at 5 us.

Number of accepted tran steps =             210

Notice from spectre during transient analysis `trans-000_trans', during task `MDLControl'.
    Trapezoidal ringing is detected during tran analysis.
        Please use method=trap for better results and performance.


Maximum value achieved for any signal of each quantity: 
V: V(I11.PM1:int_d) = 414.3 mV
I: I(V0:p) = 506.8 uA
If your circuit contains signals of the same quantity that are vastly different in size (such as high voltage circuitry combined with low voltage control circuitry), you should consider specifying global option `bin_relref=yes'.

~~~~~~~~~~~~~~~~~~~~~~~~~~~~~~~~~
Post-Transient Simulation Summary
~~~~~~~~~~~~~~~~~~~~~~~~~~~~~~~~~
   -   To further speed up simulation, consider
          add ++aps on command line
~~~~~~~~~~~~~~~~~~~~~~~~~~~~~~~~~


During simulation, the CPU load for active processors is :
         0 (47.4 %)      1 (21.4 %)      2 (12.8 %)      3 (12.9 %)
        Total: 94.4%
Initial condition solution time: CPU = 0 s, elapsed = 458.956 us.
Intrinsic tran analysis time:    CPU = 34.994 ms, elapsed = 70.889 ms.
Total time required for tran analysis `trans-000_trans': CPU = 37.994 ms, elapsed = 73.6639 ms.
Time accumulated: CPU = 12.867 s, elapsed = 25.3658 s.
Peak resident memory used = 134 Mbytes.


Notice from spectre during task `MDLControl'.
    63 notices suppressed.


**************************************************
DC Analysis `dcs-000_dcs': V1:dc = (0 V -> 300 mV)
**************************************************

Opening the PSF file ./input.raw/dcs-000_dcs.dc ...
Important parameter values:
    reltol = 1e-03
    abstol(V) = 1 uV
    abstol(I) = 1 pA
    temp = 27 C
    tnom = 27 C
    tempeffects = all
    gmindc = 1 pS
    dcs-000_dcs: dc = 12 mV          (4 %), step = 6 mV            (2 %)
    dcs-000_dcs: dc = 18 mV          (6 %), step = 6 mV            (2 %)
    dcs-000_dcs: dc = 24 mV          (8 %), step = 6 mV            (2 %)
    dcs-000_dcs: dc = 30 mV         (10 %), step = 6 mV            (2 %)
    dcs-000_dcs: dc = 36 mV         (12 %), step = 6 mV            (2 %)
    dcs-000_dcs: dc = 42 mV         (14 %), step = 6 mV            (2 %)
    dcs-000_dcs: dc = 48 mV         (16 %), step = 6 mV            (2 %)
    dcs-000_dcs: dc = 54 mV         (18 %), step = 6 mV            (2 %)
    dcs-000_dcs: dc = 60 mV         (20 %), step = 6 mV            (2 %)
    dcs-000_dcs: dc = 66 mV         (22 %), step = 6 mV            (2 %)
    dcs-000_dcs: dc = 72 mV         (24 %), step = 6 mV            (2 %)
    dcs-000_dcs: dc = 78 mV         (26 %), step = 6 mV            (2 %)
    dcs-000_dcs: dc = 84 mV         (28 %), step = 6 mV            (2 %)
    dcs-000_dcs: dc = 90 mV         (30 %), step = 6 mV            (2 %)
    dcs-000_dcs: dc = 96 mV         (32 %), step = 6 mV            (2 %)
    dcs-000_dcs: dc = 102 mV        (34 %), step = 6 mV            (2 %)
    dcs-000_dcs: dc = 108 mV        (36 %), step = 6 mV            (2 %)
    dcs-000_dcs: dc = 114 mV        (38 %), step = 6 mV            (2 %)
    dcs-000_dcs: dc = 120 mV        (40 %), step = 6 mV            (2 %)
    dcs-000_dcs: dc = 126 mV        (42 %), step = 6 mV            (2 %)
    dcs-000_dcs: dc = 132 mV        (44 %), step = 6 mV            (2 %)
    dcs-000_dcs: dc = 138 mV        (46 %), step = 6 mV            (2 %)
    dcs-000_dcs: dc = 144 mV        (48 %), step = 6 mV            (2 %)
    dcs-000_dcs: dc = 150 mV        (50 %), step = 6 mV            (2 %)
    dcs-000_dcs: dc = 156 mV        (52 %), step = 6 mV            (2 %)
    dcs-000_dcs: dc = 162 mV        (54 %), step = 6 mV            (2 %)
    dcs-000_dcs: dc = 168 mV        (56 %), step = 6 mV            (2 %)
    dcs-000_dcs: dc = 174 mV        (58 %), step = 6 mV            (2 %)
    dcs-000_dcs: dc = 180 mV        (60 %), step = 6 mV            (2 %)
    dcs-000_dcs: dc = 186 mV        (62 %), step = 6 mV            (2 %)
    dcs-000_dcs: dc = 192 mV        (64 %), step = 6 mV            (2 %)
    dcs-000_dcs: dc = 198 mV        (66 %), step = 6 mV            (2 %)
    dcs-000_dcs: dc = 204 mV        (68 %), step = 6 mV            (2 %)
    dcs-000_dcs: dc = 210 mV        (70 %), step = 6 mV            (2 %)
    dcs-000_dcs: dc = 216 mV        (72 %), step = 6 mV            (2 %)
    dcs-000_dcs: dc = 222 mV        (74 %), step = 6 mV            (2 %)
    dcs-000_dcs: dc = 228 mV        (76 %), step = 6 mV            (2 %)
    dcs-000_dcs: dc = 234 mV        (78 %), step = 6 mV            (2 %)
    dcs-000_dcs: dc = 240 mV        (80 %), step = 6 mV            (2 %)
    dcs-000_dcs: dc = 246 mV        (82 %), step = 6 mV            (2 %)
    dcs-000_dcs: dc = 252 mV        (84 %), step = 6 mV            (2 %)

Notice from spectre at dc = 258 mV during DC analysis `dcs-000_dcs', during task `MDLControl'.
    GminDC = 1 pS is large enough to noticeably affect the DC solution.
        dV(I11.PM1:int_d) = 107.962 uV
        Use the `gmin_check' option to eliminate or expand this report.

    dcs-000_dcs: dc = 258 mV        (86 %), step = 6 mV            (2 %)

Notice from spectre at dc = 264 mV during DC analysis `dcs-000_dcs', during task `MDLControl'.
    GminDC = 1 pS is large enough to noticeably affect the DC solution.
        dV(I11.PM1:int_d) = 132.392 uV
        Use the `gmin_check' option to eliminate or expand this report.

    dcs-000_dcs: dc = 264 mV        (88 %), step = 6 mV            (2 %)

Notice from spectre at dc = 270 mV during DC analysis `dcs-000_dcs', during task `MDLControl'.
    GminDC = 1 pS is large enough to noticeably affect the DC solution.
        dV(I11.PM1:int_d) = 161.981 uV
        Use the `gmin_check' option to eliminate or expand this report.

    dcs-000_dcs: dc = 270 mV        (90 %), step = 6 mV            (2 %)

Notice from spectre at dc = 276 mV during DC analysis `dcs-000_dcs', during task `MDLControl'.
    GminDC = 1 pS is large enough to noticeably affect the DC solution.
        dV(I11.PM1:int_d) = 197.666 uV
        Use the `gmin_check' option to eliminate or expand this report.

    dcs-000_dcs: dc = 276 mV        (92 %), step = 6 mV            (2 %)

Notice from spectre at dc = 282 mV during DC analysis `dcs-000_dcs', during task `MDLControl'.
    GminDC = 1 pS is large enough to noticeably affect the DC solution.
        Further occurrences of this notice will be suppressed.
        dV(I11.PM1:int_d) = 240.486 uV
        Further occurrences of this notice will be suppressed.
        Use the `gmin_check' option to eliminate or expand this report.
        Further occurrences of this notice will be suppressed.

    dcs-000_dcs: dc = 282 mV        (94 %), step = 6 mV            (2 %)
    dcs-000_dcs: dc = 288 mV        (96 %), step = 6 mV            (2 %)
    dcs-000_dcs: dc = 294 mV        (98 %), step = 6 mV            (2 %)
    dcs-000_dcs: dc = 300 mV       (100 %), step = 6 mV            (2 %)

Maximum value achieved for any signal of each quantity: 
V: V(net3) = 300 mV
I: I(V0:p) = 37.08 pA
DC simulation time: CPU = 21.997 ms, elapsed = 67.4598 ms.

Notice from spectre at dc = 300 mV during DC analysis `dcs-000_dcs', during task `MDLControl'.
    The value of parameter 'dc' has been reset to the original value 0.

Total time required for dc analysis `dcs-000_dcs': CPU = 21.997 ms, elapsed = 67.503 ms.
Time accumulated: CPU = 12.889 s, elapsed = 25.434 s.
Peak resident memory used = 134 Mbytes.


Notice from spectre during task `MDLControl'.
    3 notices suppressed.


***********************************************************
Transient Analysis `trans-000_trans': time = (0 s -> 20 us)
***********************************************************
DC simulation time: CPU = 0 s, elapsed = 393.152 us.

Opening the PSFXL file ./input.raw/trans-000_trans.tran.tran ...
Important parameter values:
    start = 0 s
    outputstart = 0 s
    stop = 20 us
    step = 20 ns
    maxstep = 400 ns
    ic = all
    useprevic = no
    skipdc = no
    reltol = 1e-03
    abstol(V) = 1 uV
    abstol(I) = 1 pA
    temp = 27 C
    tnom = 27 C
    tempeffects = all
    errpreset = moderate
    method = traponly
    lteratio = 3.5
    relref = sigglobal
    cmin = 0 F
    gmin = 1 pS


Output and IC/nodeset summary:
                 save   20      (current)
                 save   13      (voltage)
                 others 6       


Notice from spectre at time = 2.30063 ps during transient analysis `trans-000_trans', during task `MDLControl'.
    Found trapezoidal ringing on node I11.NM1:int_s.
Notice from spectre at time = 3.01061 ps during transient analysis `trans-000_trans', during task `MDLControl'.
    Found trapezoidal ringing on node I11.NM1:int_s.
Notice from spectre at time = 4.19626 ps during transient analysis `trans-000_trans', during task `MDLControl'.
    Found trapezoidal ringing on node I11.NM1:int_s.
Notice from spectre at time = 6.18947 ps during transient analysis `trans-000_trans', during task `MDLControl'.
    Found trapezoidal ringing on node I11.NM1:int_s.
Notice from spectre at time = 9.58862 ps during transient analysis `trans-000_trans', during task `MDLControl'.
    Found trapezoidal ringing on node I11.NM1:int_s.
        Further occurrences of this notice will be suppressed.

......9......8....
`AutoStop = yes'. Analysis finished at 5 us.

Number of accepted tran steps =             210

Notice from spectre during transient analysis `trans-000_trans', during task `MDLControl'.
    Trapezoidal ringing is detected during tran analysis.
        Please use method=trap for better results and performance.


Maximum value achieved for any signal of each quantity: 
V: V(I11.PM1:int_d) = 414.3 mV
I: I(V0:p) = 506.8 uA
If your circuit contains signals of the same quantity that are vastly different in size (such as high voltage circuitry combined with low voltage control circuitry), you should consider specifying global option `bin_relref=yes'.

~~~~~~~~~~~~~~~~~~~~~~~~~~~~~~~~~
Post-Transient Simulation Summary
~~~~~~~~~~~~~~~~~~~~~~~~~~~~~~~~~
   -   To further speed up simulation, consider
          add ++aps on command line
~~~~~~~~~~~~~~~~~~~~~~~~~~~~~~~~~


During simulation, the CPU load for active processors is :
         0 (47.3 %)      1 (21.3 %)      2 (12.8 %)      3 (13.0 %)
        Total: 94.4%
Initial condition solution time: CPU = 0 s, elapsed = 431.776 us.
Intrinsic tran analysis time:    CPU = 33.994 ms, elapsed = 67.755 ms.
Total time required for tran analysis `trans-000_trans': CPU = 36.993 ms, elapsed = 70.7591 ms.
Time accumulated: CPU = 12.929 s, elapsed = 25.5073 s.
Peak resident memory used = 134 Mbytes.


Notice from spectre during task `MDLControl'.
    63 notices suppressed.


**************************************************
DC Analysis `dcs-000_dcs': V1:dc = (0 V -> 300 mV)
**************************************************

Opening the PSF file ./input.raw/dcs-000_dcs.dc ...
Important parameter values:
    reltol = 1e-03
    abstol(V) = 1 uV
    abstol(I) = 1 pA
    temp = 27 C
    tnom = 27 C
    tempeffects = all
    gmindc = 1 pS
    dcs-000_dcs: dc = 12 mV          (4 %), step = 6 mV            (2 %)
    dcs-000_dcs: dc = 18 mV          (6 %), step = 6 mV            (2 %)
    dcs-000_dcs: dc = 24 mV          (8 %), step = 6 mV            (2 %)
    dcs-000_dcs: dc = 30 mV         (10 %), step = 6 mV            (2 %)
    dcs-000_dcs: dc = 36 mV         (12 %), step = 6 mV            (2 %)
    dcs-000_dcs: dc = 42 mV         (14 %), step = 6 mV            (2 %)
    dcs-000_dcs: dc = 48 mV         (16 %), step = 6 mV            (2 %)
    dcs-000_dcs: dc = 54 mV         (18 %), step = 6 mV            (2 %)
    dcs-000_dcs: dc = 60 mV         (20 %), step = 6 mV            (2 %)
    dcs-000_dcs: dc = 66 mV         (22 %), step = 6 mV            (2 %)
    dcs-000_dcs: dc = 72 mV         (24 %), step = 6 mV            (2 %)
    dcs-000_dcs: dc = 78 mV         (26 %), step = 6 mV            (2 %)
    dcs-000_dcs: dc = 84 mV         (28 %), step = 6 mV            (2 %)
    dcs-000_dcs: dc = 90 mV         (30 %), step = 6 mV            (2 %)
    dcs-000_dcs: dc = 96 mV         (32 %), step = 6 mV            (2 %)
    dcs-000_dcs: dc = 102 mV        (34 %), step = 6 mV            (2 %)
    dcs-000_dcs: dc = 108 mV        (36 %), step = 6 mV            (2 %)
    dcs-000_dcs: dc = 114 mV        (38 %), step = 6 mV            (2 %)
    dcs-000_dcs: dc = 120 mV        (40 %), step = 6 mV            (2 %)
    dcs-000_dcs: dc = 126 mV        (42 %), step = 6 mV            (2 %)
    dcs-000_dcs: dc = 132 mV        (44 %), step = 6 mV            (2 %)
    dcs-000_dcs: dc = 138 mV        (46 %), step = 6 mV            (2 %)
    dcs-000_dcs: dc = 144 mV        (48 %), step = 6 mV            (2 %)
    dcs-000_dcs: dc = 150 mV        (50 %), step = 6 mV            (2 %)
    dcs-000_dcs: dc = 156 mV        (52 %), step = 6 mV            (2 %)
    dcs-000_dcs: dc = 162 mV        (54 %), step = 6 mV            (2 %)
    dcs-000_dcs: dc = 168 mV        (56 %), step = 6 mV            (2 %)
    dcs-000_dcs: dc = 174 mV        (58 %), step = 6 mV            (2 %)
    dcs-000_dcs: dc = 180 mV        (60 %), step = 6 mV            (2 %)
    dcs-000_dcs: dc = 186 mV        (62 %), step = 6 mV            (2 %)
    dcs-000_dcs: dc = 192 mV        (64 %), step = 6 mV            (2 %)
    dcs-000_dcs: dc = 198 mV        (66 %), step = 6 mV            (2 %)
    dcs-000_dcs: dc = 204 mV        (68 %), step = 6 mV            (2 %)
    dcs-000_dcs: dc = 210 mV        (70 %), step = 6 mV            (2 %)
    dcs-000_dcs: dc = 216 mV        (72 %), step = 6 mV            (2 %)
    dcs-000_dcs: dc = 222 mV        (74 %), step = 6 mV            (2 %)
    dcs-000_dcs: dc = 228 mV        (76 %), step = 6 mV            (2 %)
    dcs-000_dcs: dc = 234 mV        (78 %), step = 6 mV            (2 %)
    dcs-000_dcs: dc = 240 mV        (80 %), step = 6 mV            (2 %)
    dcs-000_dcs: dc = 246 mV        (82 %), step = 6 mV            (2 %)
    dcs-000_dcs: dc = 252 mV        (84 %), step = 6 mV            (2 %)

Notice from spectre at dc = 258 mV during DC analysis `dcs-000_dcs', during task `MDLControl'.
    GminDC = 1 pS is large enough to noticeably affect the DC solution.
        dV(I11.PM1:int_d) = 107.962 uV
        Use the `gmin_check' option to eliminate or expand this report.

    dcs-000_dcs: dc = 258 mV        (86 %), step = 6 mV            (2 %)

Notice from spectre at dc = 264 mV during DC analysis `dcs-000_dcs', during task `MDLControl'.
    GminDC = 1 pS is large enough to noticeably affect the DC solution.
        dV(I11.PM1:int_d) = 132.392 uV
        Use the `gmin_check' option to eliminate or expand this report.

    dcs-000_dcs: dc = 264 mV        (88 %), step = 6 mV            (2 %)

Notice from spectre at dc = 270 mV during DC analysis `dcs-000_dcs', during task `MDLControl'.
    GminDC = 1 pS is large enough to noticeably affect the DC solution.
        dV(I11.PM1:int_d) = 161.981 uV
        Use the `gmin_check' option to eliminate or expand this report.

    dcs-000_dcs: dc = 270 mV        (90 %), step = 6 mV            (2 %)

Notice from spectre at dc = 276 mV during DC analysis `dcs-000_dcs', during task `MDLControl'.
    GminDC = 1 pS is large enough to noticeably affect the DC solution.
        dV(I11.PM1:int_d) = 197.666 uV
        Use the `gmin_check' option to eliminate or expand this report.

    dcs-000_dcs: dc = 276 mV        (92 %), step = 6 mV            (2 %)

Notice from spectre at dc = 282 mV during DC analysis `dcs-000_dcs', during task `MDLControl'.
    GminDC = 1 pS is large enough to noticeably affect the DC solution.
        Further occurrences of this notice will be suppressed.
        dV(I11.PM1:int_d) = 240.486 uV
        Further occurrences of this notice will be suppressed.
        Use the `gmin_check' option to eliminate or expand this report.
        Further occurrences of this notice will be suppressed.

    dcs-000_dcs: dc = 282 mV        (94 %), step = 6 mV            (2 %)
    dcs-000_dcs: dc = 288 mV        (96 %), step = 6 mV            (2 %)
    dcs-000_dcs: dc = 294 mV        (98 %), step = 6 mV            (2 %)
    dcs-000_dcs: dc = 300 mV       (100 %), step = 6 mV            (2 %)

Maximum value achieved for any signal of each quantity: 
V: V(net3) = 300 mV
I: I(V0:p) = 37.08 pA
DC simulation time: CPU = 22.997 ms, elapsed = 69.3591 ms.

Notice from spectre at dc = 300 mV during DC analysis `dcs-000_dcs', during task `MDLControl'.
    The value of parameter 'dc' has been reset to the original value 0.

Total time required for dc analysis `dcs-000_dcs': CPU = 22.997 ms, elapsed = 69.407 ms.
Time accumulated: CPU = 12.955 s, elapsed = 25.6254 s.
Peak resident memory used = 134 Mbytes.


Notice from spectre during task `MDLControl'.
    3 notices suppressed.


Aggregate audit (4:22:09 PM, Mon Dec 27, 2021):
Time used: CPU = 13 s, elapsed = 25.7 s, util. = 50.5%.
Time spent in licensing: elapsed = 344 ms.
Peak memory used = 135 Mbytes.
Simulation started at: 4:21:43 PM, Mon Dec 27, 2021, ended at: 4:22:09 PM, Mon Dec 27, 2021, with elapsed time (wall clock): 25.7 s.
spectre completes with 0 errors, 345 warnings, and 2108 notices.
